CatS_162_score
 OpenBabel12031814113D

 95100  0  0  1  0  0  0  0  0999 V2000
   -4.3294    7.5800   -5.9570 C   0  0  0  0  0  0  0  0  0  0  0  0
   -4.7644    6.5880   -5.1080 C   0  0  0  0  0  0  0  0  0  0  0  0
   -6.0384    6.6020   -4.5810 C   0  0  0  0  0  0  0  0  0  0  0  0
   -6.8764    7.6520   -4.9330 C   0  0  0  0  0  0  0  0  0  0  0  0
   -6.4404    8.6520   -5.7740 C   0  0  0  0  0  0  0  0  0  0  0  0
   -5.1634    8.6310   -6.2980 C   0  0  0  0  0  0  0  0  0  0  0  0
   -4.7354    9.6920   -7.1940 C   0  0  0  0  0  0  0  0  0  0  0  0
   -5.3954   10.2190   -8.3300 C   0  0  0  0  0  0  0  0  0  0  0  0
   -4.5694   11.1780   -8.7540 C   0  0  0  0  0  0  0  0  0  0  0  0
   -3.4464   11.2750   -8.0000 N   0  0  0  0  0  0  0  0  0  0  0  0
   -3.6014   10.3420   -7.0350 N   0  0  0  0  0  0  0  0  0  0  0  0
   -2.2674   12.1360   -8.1610 C   0  0  0  0  0  0  0  0  0  0  0  0
   -1.0594   11.3880   -8.7560 C   0  0  2  0  0  0  0  0  0  0  0  0
   -0.7434   11.8170  -10.2070 C   0  0  0  0  0  0  0  0  0  0  0  0
    0.5406   11.2710  -10.7840 N   0  3  0  0  0  0  0  0  0  0  0  0
    0.3886    9.9150  -11.3740 C   0  0  0  0  0  0  0  0  0  0  0  0
    1.7446    9.2600  -11.7020 C   0  0  0  0  0  0  0  0  0  0  0  0
    2.8516   10.2880  -11.8980 C   0  0  0  0  0  0  0  0  0  0  0  0
    2.2796   11.5080  -12.5890 C   0  0  0  0  0  0  0  0  0  0  0  0
    1.1936   12.1860  -11.7480 C   0  0  0  0  0  0  0  0  0  0  0  0
   -1.3264    9.9780   -8.7480 O   0  0  0  0  0  0  0  0  0  0  0  0
   -4.8924   12.0580   -9.9470 C   0  0  0  0  0  0  0  0  0  0  0  0
   -6.4234   12.1560  -10.1250 C   0  0  0  0  0  0  0  0  0  0  0  0
   -7.0504   10.8150  -10.1170 N   0  0  0  0  0  0  0  0  0  0  0  0
   -6.7284    9.8990   -8.9940 C   0  0  0  0  0  0  0  0  0  0  0  0
   -7.8004   10.4330  -11.1860 C   0  0  0  0  0  0  0  0  0  0  0  0
   -7.2444   10.1570  -12.2570 O   0  0  0  0  0  0  0  0  0  0  0  0
   -9.1504   10.3270  -11.0820 N   0  0  0  0  0  0  0  0  0  0  0  0
  -10.0094   11.4640  -10.6940 C   0  0  0  0  0  0  0  0  0  0  0  0
  -11.1964   11.0150   -9.8210 C   0  0  0  0  0  0  0  0  0  0  0  0
  -11.8474    9.8590  -10.3800 O   0  0  0  0  0  0  0  0  0  0  0  0
  -10.9624    8.7300  -10.4710 C   0  0  0  0  0  0  0  0  0  0  0  0
   -9.7964    9.0480  -11.4230 C   0  0  0  0  0  0  0  0  0  0  0  0
   -8.5694    7.7510   -4.3380 S   0  0  0  0  0  0  0  0  0  0  0  0
   -8.9514    9.5080   -4.1180 C   0  0  0  0  0  0  0  0  0  0  0  0
   -8.1294   10.0770   -2.9400 C   0  0  0  0  0  0  0  0  0  0  0  0
   -8.8334   11.1840   -2.1970 N   0  3  1  0  0  0  0  0  0  0  0  0
  -10.2274   10.7820   -1.7710 C   0  0  0  0  0  0  0  0  0  0  0  0
  -10.8134   11.7180   -0.6860 C   0  0  0  0  0  0  0  0  0  0  0  0
  -10.1814   13.1200   -0.7730 C   0  0  2  0  0  0  0  0  0  0  0  0
   -8.6574   13.0540   -0.5130 C   0  0  0  0  0  0  0  0  0  0  0  0
   -8.0264   11.7460   -1.0540 C   0  0  0  0  0  0  0  0  0  0  0  0
  -10.7784   13.9550    0.1650 F   0  0  0  0  0  0  0  0  0  0  0  0
   -6.4224    5.4490   -3.6560 C   0  0  0  0  0  0  0  0  0  0  0  0
   -5.3524    4.6290   -3.3090 F   0  0  0  0  0  0  0  0  0  0  0  0
   -7.3764    4.6340   -4.2560 F   0  0  0  0  0  0  0  0  0  0  0  0
   -6.9664    5.9220   -2.4670 F   0  0  0  0  0  0  0  0  0  0  0  0
   -0.2674   11.6130   -8.1900 H   0  0  0  0  0  0  0  0  0  0  0  0
   -3.4024    7.5410   -6.3290 H   0  0  0  0  0  0  0  0  0  0  0  0
   -4.1424    5.8420   -4.8680 H   0  0  0  0  0  0  0  0  0  0  0  0
   -7.0564    9.4040   -6.0070 H   0  0  0  0  0  0  0  0  0  0  0  0
   -2.0104   12.5000   -7.2680 H   0  0  0  0  0  0  0  0  0  0  0  0
   -2.5114   12.8670   -8.8000 H   0  0  0  0  0  0  0  0  0  0  0  0
   -0.6944   12.8150  -10.2310 H   0  0  0  0  0  0  0  0  0  0  0  0
   -1.4784   11.4370  -10.7700 H   0  0  0  0  0  0  0  0  0  0  0  0
    1.1196   11.1900  -10.0860 H   0  0  0  0  0  0  0  0  0  0  0  0
   -0.1444    9.9810  -12.2180 H   0  0  0  0  0  0  0  0  0  0  0  0
   -0.0804    9.3290  -10.7110 H   0  0  0  0  0  0  0  0  0  0  0  0
    1.6606    8.7240  -12.5420 H   0  0  0  0  0  0  0  0  0  0  0  0
    2.0106    8.6620  -10.9450 H   0  0  0  0  0  0  0  0  0  0  0  0
    3.5776    9.8790  -12.4510 H   0  0  0  0  0  0  0  0  0  0  0  0
    3.1866   10.5490  -10.9930 H   0  0  0  0  0  0  0  0  0  0  0  0
    1.8836   11.2370  -13.4660 H   0  0  0  0  0  0  0  0  0  0  0  0
    3.0166   12.1700  -12.7370 H   0  0  0  0  0  0  0  0  0  0  0  0
    0.4886   12.5500  -12.3560 H   0  0  0  0  0  0  0  0  0  0  0  0
    1.6146   12.9220  -11.2190 H   0  0  0  0  0  0  0  0  0  0  0  0
   -0.5524    9.4590   -8.3710 H   0  0  0  0  0  0  0  0  0  0  0  0
   -4.4854   11.6650  -10.7710 H   0  0  0  0  0  0  0  0  0  0  0  0
   -4.5194   12.9740   -9.7920 H   0  0  0  0  0  0  0  0  0  0  0  0
   -6.6234   12.6080  -10.9940 H   0  0  0  0  0  0  0  0  0  0  0  0
   -6.7974   12.6830   -9.3610 H   0  0  0  0  0  0  0  0  0  0  0  0
   -6.6964    8.9620   -9.3440 H   0  0  0  0  0  0  0  0  0  0  0  0
   -7.4424   10.0080   -8.3020 H   0  0  0  0  0  0  0  0  0  0  0  0
  -10.3604   11.9030  -11.5200 H   0  0  0  0  0  0  0  0  0  0  0  0
   -9.4544   12.1010  -10.1570 H   0  0  0  0  0  0  0  0  0  0  0  0
  -11.8554   11.7650   -9.7530 H   0  0  0  0  0  0  0  0  0  0  0  0
  -10.8494   10.7710   -8.9140 H   0  0  0  0  0  0  0  0  0  0  0  0
  -11.4684    7.9380  -10.8150 H   0  0  0  0  0  0  0  0  0  0  0  0
  -10.5964    8.5260   -9.5620 H   0  0  0  0  0  0  0  0  0  0  0  0
  -10.1444    9.0960  -12.3600 H   0  0  0  0  0  0  0  0  0  0  0  0
   -9.1144    8.3200  -11.3360 H   0  0  0  0  0  0  0  0  0  0  0  0
   -9.9274    9.6150   -3.9270 H   0  0  0  0  0  0  0  0  0  0  0  0
   -8.7174   10.0030   -4.9550 H   0  0  0  0  0  0  0  0  0  0  0  0
   -7.2664   10.4320   -3.2980 H   0  0  0  0  0  0  0  0  0  0  0  0
   -7.9894    9.3310   -2.2910 H   0  0  0  0  0  0  0  0  0  0  0  0
   -8.9384   11.8640   -2.7920 H   0  0  0  0  0  0  0  0  0  0  0  0
  -10.1944    9.8500   -1.4090 H   0  0  0  0  0  0  0  0  0  0  0  0
  -10.8174   10.8430   -2.5740 H   0  0  0  0  0  0  0  0  0  0  0  0
  -10.6314   11.3280    0.2170 H   0  0  0  0  0  0  0  0  0  0  0  0
  -11.7984   11.8020   -0.8360 H   0  0  0  0  0  0  0  0  0  0  0  0
  -10.3304   13.4800   -1.6940 H   0  0  0  0  0  0  0  0  0  0  0  0
   -8.4934   13.1120    0.4700 H   0  0  0  0  0  0  0  0  0  0  0  0
   -8.2304   13.8200   -0.9970 H   0  0  0  0  0  0  0  0  0  0  0  0
   -7.9884   11.0730   -0.3160 H   0  0  0  0  0  0  0  0  0  0  0  0
   -7.1074   11.9520   -1.3870 H   0  0  0  0  0  0  0  0  0  0  0  0
  1  2  2  0  0  0  0
  1  6  1  0  0  0  0
  1 49  1  0  0  0  0
  2  3  1  0  0  0  0
  2 50  1  0  0  0  0
  3  4  2  0  0  0  0
  3 44  1  0  0  0  0
  4  5  1  0  0  0  0
  4 34  1  0  0  0  0
  5  6  2  0  0  0  0
  5 51  1  0  0  0  0
  6  7  1  0  0  0  0
  7  8  1  0  0  0  0
  7 11  2  0  0  0  0
  8  9  2  0  0  0  0
  8 25  1  0  0  0  0
  9 10  1  0  0  0  0
  9 22  1  0  0  0  0
 10 11  1  0  0  0  0
 10 12  1  0  0  0  0
 12 13  1  0  0  0  0
 12 52  1  0  0  0  0
 12 53  1  0  0  0  0
 13 14  1  0  0  0  0
 13 21  1  0  0  0  0
 13 48  1  1  0  0  0
 14 15  1  0  0  0  0
 14 54  1  0  0  0  0
 14 55  1  0  0  0  0
 15 16  1  0  0  0  0
 15 20  1  0  0  0  0
 15 56  1  0  0  0  0
 16 17  1  0  0  0  0
 16 57  1  0  0  0  0
 16 58  1  0  0  0  0
 17 18  1  0  0  0  0
 17 59  1  0  0  0  0
 17 60  1  0  0  0  0
 18 19  1  0  0  0  0
 18 61  1  0  0  0  0
 18 62  1  0  0  0  0
 19 20  1  0  0  0  0
 19 63  1  0  0  0  0
 19 64  1  0  0  0  0
 20 65  1  0  0  0  0
 20 66  1  0  0  0  0
 21 67  1  0  0  0  0
 22 23  1  0  0  0  0
 22 68  1  0  0  0  0
 22 69  1  0  0  0  0
 23 24  1  0  0  0  0
 23 70  1  0  0  0  0
 23 71  1  0  0  0  0
 24 25  1  0  0  0  0
 24 26  1  0  0  0  0
 25 72  1  0  0  0  0
 25 73  1  0  0  0  0
 26 27  2  0  0  0  0
 26 28  1  0  0  0  0
 28 29  1  0  0  0  0
 28 33  1  0  0  0  0
 29 30  1  0  0  0  0
 29 74  1  0  0  0  0
 29 75  1  0  0  0  0
 30 31  1  0  0  0  0
 30 76  1  0  0  0  0
 30 77  1  0  0  0  0
 31 32  1  0  0  0  0
 32 33  1  0  0  0  0
 32 78  1  0  0  0  0
 32 79  1  0  0  0  0
 33 80  1  0  0  0  0
 33 81  1  0  0  0  0
 34 35  1  0  0  0  0
 35 36  1  0  0  0  0
 35 82  1  0  0  0  0
 35 83  1  0  0  0  0
 36 37  1  0  0  0  0
 36 84  1  0  0  0  0
 36 85  1  0  0  0  0
 37 38  1  0  0  0  0
 37 42  1  0  0  0  0
 37 86  1  6  0  0  0
 38 39  1  0  0  0  0
 38 87  1  0  0  0  0
 38 88  1  0  0  0  0
 39 40  1  0  0  0  0
 39 89  1  0  0  0  0
 39 90  1  0  0  0  0
 40 41  1  0  0  0  0
 40 43  1  0  0  0  0
 40 91  1  6  0  0  0
 41 42  1  0  0  0  0
 41 92  1  0  0  0  0
 41 93  1  0  0  0  0
 42 94  1  0  0  0  0
 42 95  1  0  0  0  0
 44 45  1  0  0  0  0
 44 46  1  0  0  0  0
 44 47  1  0  0  0  0
M  CHG  2  15   1  37   1
M  END
