CatS_30_score
 OpenBabel12031814113D

 92 96  0  0  0  0  0  0  0  0999 V2000
    2.3677   18.5047   -5.1977 C   0  0  0  0  0  0  0  0  0  0  0  0
    1.1727   17.9647   -5.9467 C   0  0  0  0  0  0  0  0  0  0  0  0
    0.7297   18.4997   -6.9527 O   0  0  0  0  0  0  0  0  0  0  0  0
    0.6807   16.8557   -5.3737 N   0  0  0  0  0  0  0  0  0  0  0  0
   -0.4643   16.1567   -5.9777 C   0  0  2  0  0  0  0  0  0  0  0  0
   -1.0533   15.1087   -5.0117 C   0  0  0  0  0  0  0  0  0  0  0  0
   -2.2463   14.3957   -5.6817 C   0  0  0  0  0  0  0  0  0  0  0  0
   -1.8343   13.7377   -6.9777 N   0  3  2  0  0  0  0  0  0  0  0  0
   -1.1973   14.7177   -7.9327 C   0  0  0  0  0  0  0  0  0  0  0  0
   -0.0133   15.4567   -7.2747 C   0  0  0  0  0  0  0  0  0  0  0  0
   -2.9573   12.9647   -7.6237 C   0  0  0  0  0  0  0  0  0  0  0  0
   -2.4603   12.0007   -8.7217 C   0  0  0  0  0  0  0  0  0  0  0  0
   -3.6383   11.3807   -9.4947 C   0  0  0  0  0  0  0  0  0  0  0  0
   -4.7103   10.7837   -8.6847 N   0  0  0  0  0  0  0  0  0  0  0  0
   -6.0543   10.9367   -8.7687 C   0  0  0  0  0  0  0  0  0  0  0  0
   -6.7143   10.2117   -7.8657 C   0  0  0  0  0  0  0  0  0  0  0  0
   -5.6883    9.5207   -7.1797 C   0  0  0  0  0  0  0  0  0  0  0  0
   -4.5283    9.8937   -7.6817 N   0  0  0  0  0  0  0  0  0  0  0  0
   -5.8013    8.5427   -6.1127 C   0  0  0  0  0  0  0  0  0  0  0  0
   -4.8973    7.5037   -5.9817 C   0  0  0  0  0  0  0  0  0  0  0  0
   -5.0123    6.6007   -4.9517 C   0  0  0  0  0  0  0  0  0  0  0  0
   -6.0283    6.6997   -4.0207 C   0  0  0  0  0  0  0  0  0  0  0  0
   -6.9363    7.7397   -4.1567 C   0  0  0  0  0  0  0  0  0  0  0  0
   -6.8223    8.6457   -5.1877 C   0  0  0  0  0  0  0  0  0  0  0  0
   -8.3133    7.9437   -3.0147 S   0  0  0  0  0  0  0  0  0  0  0  0
   -8.7863    9.6957   -2.9187 C   0  0  0  0  0  0  0  0  0  0  0  0
   -7.7043   10.5707   -2.2557 C   0  0  0  0  0  0  0  0  0  0  0  0
   -8.2663   11.5227   -1.2257 N   0  3  0  0  0  0  0  0  0  0  0  0
   -9.6343   12.0427   -1.5947 C   0  0  0  0  0  0  0  0  0  0  0  0
  -10.2043   12.9257   -0.4657 C   0  0  0  0  0  0  0  0  0  0  0  0
   -9.2283   14.0777   -0.1527 C   0  0  0  0  0  0  0  0  0  0  0  0
   -7.8543   13.5107    0.2523 C   0  0  0  0  0  0  0  0  0  0  0  0
   -7.2993   12.6247   -0.8797 C   0  0  0  0  0  0  0  0  0  0  0  0
   -6.0553    5.6427   -2.9177 C   0  0  0  0  0  0  0  0  0  0  0  0
   -5.8133    6.2187   -1.6767 F   0  0  0  0  0  0  0  0  0  0  0  0
   -5.1043    4.6387   -3.0877 F   0  0  0  0  0  0  0  0  0  0  0  0
   -7.2923    5.0127   -2.8527 F   0  0  0  0  0  0  0  0  0  0  0  0
   -8.2343   10.2307   -7.7557 C   0  0  0  0  0  0  0  0  0  0  0  0
   -8.8693   11.3547   -8.4887 N   0  0  0  0  0  0  0  0  0  0  0  0
   -8.2753   11.4537   -9.8387 C   0  0  0  0  0  0  0  0  0  0  0  0
   -6.7743   11.8267   -9.7627 C   0  0  0  0  0  0  0  0  0  0  0  0
  -10.4843   11.5207   -8.3277 S   0  0  0  0  0  0  0  0  0  0  0  0
  -11.0353   11.7917   -9.6147 O   0  0  0  0  0  0  0  0  0  0  0  0
  -10.9773   10.3837   -7.6207 O   0  0  0  0  0  0  0  0  0  0  0  0
  -10.7743   12.9817   -7.2947 C   0  0  0  0  0  0  0  0  0  0  0  0
    2.5517   17.9147   -4.4117 H   0  0  0  0  0  0  0  0  0  0  0  0
    3.1647   18.5207   -5.8017 H   0  0  0  0  0  0  0  0  0  0  0  0
    2.1757   19.4347   -4.8847 H   0  0  0  0  0  0  0  0  0  0  0  0
    1.0437   16.5397   -4.6357 H   0  0  0  0  0  0  0  0  0  0  0  0
   -1.1713   16.8357   -6.1767 H   0  0  0  0  0  0  0  0  0  0  0  0
   -1.3623   15.5627   -4.1757 H   0  0  0  0  0  0  0  0  0  0  0  0
   -0.3513   14.4327   -4.7877 H   0  0  0  0  0  0  0  0  0  0  0  0
   -2.9663   15.0657   -5.8657 H   0  0  0  0  0  0  0  0  0  0  0  0
   -2.5783   13.6857   -5.0597 H   0  0  0  0  0  0  0  0  0  0  0  0
   -1.1883   13.1307   -6.7677 H   0  0  0  0  0  0  0  0  0  0  0  0
   -1.8833   15.3867   -8.2197 H   0  0  0  0  0  0  0  0  0  0  0  0
   -0.8513   14.2087   -8.7197 H   0  0  0  0  0  0  0  0  0  0  0  0
    0.7097   14.7987   -7.0627 H   0  0  0  0  0  0  0  0  0  0  0  0
    0.3287   16.1477   -7.9127 H   0  0  0  0  0  0  0  0  0  0  0  0
   -3.6003   13.6137   -8.0307 H   0  0  0  0  0  0  0  0  0  0  0  0
   -3.3933   12.4147   -6.9137 H   0  0  0  0  0  0  0  0  0  0  0  0
   -1.9263   11.2697   -8.2977 H   0  0  0  0  0  0  0  0  0  0  0  0
   -1.8973   12.5177   -9.3657 H   0  0  0  0  0  0  0  0  0  0  0  0
   -3.2713   10.6647  -10.0897 H   0  0  0  0  0  0  0  0  0  0  0  0
   -4.0683   12.1407   -9.9787 H   0  0  0  0  0  0  0  0  0  0  0  0
   -4.1513    7.4087   -6.6417 H   0  0  0  0  0  0  0  0  0  0  0  0
   -4.3493    5.8567   -4.8747 H   0  0  0  0  0  0  0  0  0  0  0  0
   -7.4873    9.3877   -5.2677 H   0  0  0  0  0  0  0  0  0  0  0  0
   -9.6293    9.7717   -2.3907 H   0  0  0  0  0  0  0  0  0  0  0  0
   -8.9053   10.0257   -3.8567 H   0  0  0  0  0  0  0  0  0  0  0  0
   -7.2393   11.1027   -2.9637 H   0  0  0  0  0  0  0  0  0  0  0  0
   -7.0723    9.9577   -1.7797 H   0  0  0  0  0  0  0  0  0  0  0  0
   -8.3813   11.0377   -0.4617 H   0  0  0  0  0  0  0  0  0  0  0  0
  -10.2503   11.2697   -1.7527 H   0  0  0  0  0  0  0  0  0  0  0  0
   -9.5553   12.5947   -2.4237 H   0  0  0  0  0  0  0  0  0  0  0  0
  -10.3403   12.3707    0.3553 H   0  0  0  0  0  0  0  0  0  0  0  0
  -11.0803   13.3097   -0.7597 H   0  0  0  0  0  0  0  0  0  0  0  0
   -9.5963   14.6307    0.5963 H   0  0  0  0  0  0  0  0  0  0  0  0
   -9.1203   14.6447   -0.9697 H   0  0  0  0  0  0  0  0  0  0  0  0
   -7.9513   12.9677    1.0863 H   0  0  0  0  0  0  0  0  0  0  0  0
   -7.2223   14.2677    0.4173 H   0  0  0  0  0  0  0  0  0  0  0  0
   -7.1383   13.1877   -1.6907 H   0  0  0  0  0  0  0  0  0  0  0  0
   -6.4433   12.2117   -0.5697 H   0  0  0  0  0  0  0  0  0  0  0  0
   -8.4813   10.2987   -6.7907 H   0  0  0  0  0  0  0  0  0  0  0  0
   -8.5663    9.3857   -8.1747 H   0  0  0  0  0  0  0  0  0  0  0  0
   -8.7623   12.1547  -10.3607 H   0  0  0  0  0  0  0  0  0  0  0  0
   -8.3563   10.5637  -10.2887 H   0  0  0  0  0  0  0  0  0  0  0  0
   -6.3593   11.7167  -10.6667 H   0  0  0  0  0  0  0  0  0  0  0  0
   -6.6953   12.7767   -9.4627 H   0  0  0  0  0  0  0  0  0  0  0  0
  -11.3223   12.7177   -6.5027 H   0  0  0  0  0  0  0  0  0  0  0  0
   -9.8973   13.3567   -6.9897 H   0  0  0  0  0  0  0  0  0  0  0  0
  -11.2583   13.6777   -7.8257 H   0  0  0  0  0  0  0  0  0  0  0  0
  1  2  1  0  0  0  0
  1 46  1  0  0  0  0
  1 47  1  0  0  0  0
  1 48  1  0  0  0  0
  2  3  2  0  0  0  0
  2  4  1  0  0  0  0
  4  5  1  0  0  0  0
  4 49  1  0  0  0  0
  5  6  1  0  0  0  0
  5 10  1  0  0  0  0
  5 50  1  6  0  0  0
  6  7  1  0  0  0  0
  6 51  1  0  0  0  0
  6 52  1  0  0  0  0
  7  8  1  0  0  0  0
  7 53  1  0  0  0  0
  7 54  1  0  0  0  0
  8  9  1  0  0  0  0
  8 11  1  0  0  0  0
  8 55  1  1  0  0  0
  9 10  1  0  0  0  0
  9 56  1  0  0  0  0
  9 57  1  0  0  0  0
 10 58  1  0  0  0  0
 10 59  1  0  0  0  0
 11 12  1  0  0  0  0
 11 60  1  0  0  0  0
 11 61  1  0  0  0  0
 12 13  1  0  0  0  0
 12 62  1  0  0  0  0
 12 63  1  0  0  0  0
 13 14  1  0  0  0  0
 13 64  1  0  0  0  0
 13 65  1  0  0  0  0
 14 15  1  0  0  0  0
 14 18  1  0  0  0  0
 15 16  2  0  0  0  0
 15 41  1  0  0  0  0
 16 17  1  0  0  0  0
 16 38  1  0  0  0  0
 17 18  2  0  0  0  0
 17 19  1  0  0  0  0
 19 20  2  0  0  0  0
 19 24  1  0  0  0  0
 20 21  1  0  0  0  0
 20 66  1  0  0  0  0
 21 22  2  0  0  0  0
 21 67  1  0  0  0  0
 22 23  1  0  0  0  0
 22 34  1  0  0  0  0
 23 24  2  0  0  0  0
 23 25  1  0  0  0  0
 24 68  1  0  0  0  0
 25 26  1  0  0  0  0
 26 27  1  0  0  0  0
 26 69  1  0  0  0  0
 26 70  1  0  0  0  0
 27 28  1  0  0  0  0
 27 71  1  0  0  0  0
 27 72  1  0  0  0  0
 28 29  1  0  0  0  0
 28 33  1  0  0  0  0
 28 73  1  0  0  0  0
 29 30  1  0  0  0  0
 29 74  1  0  0  0  0
 29 75  1  0  0  0  0
 30 31  1  0  0  0  0
 30 76  1  0  0  0  0
 30 77  1  0  0  0  0
 31 32  1  0  0  0  0
 31 78  1  0  0  0  0
 31 79  1  0  0  0  0
 32 33  1  0  0  0  0
 32 80  1  0  0  0  0
 32 81  1  0  0  0  0
 33 82  1  0  0  0  0
 33 83  1  0  0  0  0
 34 35  1  0  0  0  0
 34 36  1  0  0  0  0
 34 37  1  0  0  0  0
 38 39  1  0  0  0  0
 38 84  1  0  0  0  0
 38 85  1  0  0  0  0
 39 40  1  0  0  0  0
 39 42  1  0  0  0  0
 40 41  1  0  0  0  0
 40 86  1  0  0  0  0
 40 87  1  0  0  0  0
 41 88  1  0  0  0  0
 41 89  1  0  0  0  0
 42 43  2  0  0  0  0
 42 44  2  0  0  0  0
 42 45  1  0  0  0  0
 45 90  1  0  0  0  0
 45 91  1  0  0  0  0
 45 92  1  0  0  0  0
M  CHG  2   8   1  28   1
M  END
