CatS_29_score
 OpenBabel12031814113D

 96100  0  0  0  0  0  0  0  0999 V2000
    1.2950   18.1236   -6.1330 C   0  0  0  0  0  0  0  0  0  0  0  0
   -0.0120   18.3756   -5.3640 C   0  0  0  0  0  0  0  0  0  0  0  0
   -0.2710   17.3006   -4.4440 O   0  0  0  0  0  0  0  0  0  0  0  0
   -1.0970   16.3076   -4.8770 C   0  0  0  0  0  0  0  0  0  0  0  0
   -2.3090   16.5046   -4.8700 O   0  0  0  0  0  0  0  0  0  0  0  0
   -0.5550   15.1416   -5.2970 N   0  0  0  0  0  0  0  0  0  0  0  0
   -1.0950   14.3866   -6.4430 C   0  0  1  0  0  0  0  0  0  0  0  0
   -2.4170   13.7036   -6.0430 C   0  0  0  0  0  0  0  0  0  0  0  0
   -2.9770   12.9086   -7.2400 C   0  0  0  0  0  0  0  0  0  0  0  0
   -3.1780   13.7936   -8.4470 N   0  3  1  0  0  0  0  0  0  0  0  0
   -1.9140   14.5266   -8.8280 C   0  0  0  0  0  0  0  0  0  0  0  0
   -1.3570   15.3296   -7.6330 C   0  0  0  0  0  0  0  0  0  0  0  0
   -3.7890   13.0346   -9.5980 C   0  0  0  0  0  0  0  0  0  0  0  0
   -5.3240   13.1626   -9.6920 C   0  0  0  0  0  0  0  0  0  0  0  0
   -5.9020   11.8206  -10.1750 C   0  0  0  0  0  0  0  0  0  0  0  0
   -6.6740   11.0706   -9.1730 N   0  0  0  0  0  0  0  0  0  0  0  0
   -7.9930   11.1276   -8.8530 C   0  0  0  0  0  0  0  0  0  0  0  0
   -8.3070   10.3406   -7.8210 C   0  0  0  0  0  0  0  0  0  0  0  0
   -7.0790    9.7196   -7.4870 C   0  0  0  0  0  0  0  0  0  0  0  0
   -6.1460   10.1906   -8.2890 N   0  0  0  0  0  0  0  0  0  0  0  0
   -6.8160    8.7296   -6.4560 C   0  0  0  0  0  0  0  0  0  0  0  0
   -5.7360    7.8686   -6.5460 C   0  0  0  0  0  0  0  0  0  0  0  0
   -5.5010    6.9326   -5.5660 C   0  0  0  0  0  0  0  0  0  0  0  0
   -6.3290    6.8146   -4.4680 C   0  0  0  0  0  0  0  0  0  0  0  0
   -7.4030    7.6916   -4.3700 C   0  0  0  0  0  0  0  0  0  0  0  0
   -7.6380    8.6306   -5.3490 C   0  0  0  0  0  0  0  0  0  0  0  0
   -8.5540    7.6556   -2.9870 S   0  0  0  0  0  0  0  0  0  0  0  0
   -9.1550    9.3436   -2.7080 C   0  0  0  0  0  0  0  0  0  0  0  0
   -7.9910   10.2926   -2.3440 C   0  0  0  0  0  0  0  0  0  0  0  0
   -8.3370   11.3266   -1.3010 N   0  3  0  0  0  0  0  0  0  0  0  0
   -9.7430   11.8496   -1.4690 C   0  0  0  0  0  0  0  0  0  0  0  0
  -10.1100   12.8296   -0.3350 C   0  0  0  0  0  0  0  0  0  0  0  0
   -9.0910   13.9836   -0.2840 C   0  0  0  0  0  0  0  0  0  0  0  0
   -7.6720   13.4206   -0.0730 C   0  0  0  0  0  0  0  0  0  0  0  0
   -7.3270   12.4446   -1.2150 C   0  0  0  0  0  0  0  0  0  0  0  0
   -5.9200    5.7156   -3.4860 C   0  0  0  0  0  0  0  0  0  0  0  0
   -6.8150    4.6486   -3.4900 F   0  0  0  0  0  0  0  0  0  0  0  0
   -5.8480    6.1476   -2.1680 F   0  0  0  0  0  0  0  0  0  0  0  0
   -4.6790    5.1946   -3.8310 F   0  0  0  0  0  0  0  0  0  0  0  0
   -9.7180   10.2566   -7.2540 C   0  0  0  0  0  0  0  0  0  0  0  0
  -10.5580   11.4246   -7.6140 N   0  0  0  0  0  0  0  0  0  0  0  0
  -10.4750   11.6366   -9.0740 C   0  0  0  0  0  0  0  0  0  0  0  0
   -9.0400   11.9856   -9.5430 C   0  0  0  0  0  0  0  0  0  0  0  0
  -12.0220   11.4596   -6.8900 S   0  0  0  0  0  0  0  0  0  0  0  0
  -12.5530   12.7626   -7.1260 O   0  0  0  0  0  0  0  0  0  0  0  0
  -11.8530   11.0826   -5.5250 O   0  0  0  0  0  0  0  0  0  0  0  0
  -13.1210   10.2536   -7.6910 C   0  0  0  0  0  0  0  0  0  0  0  0
    1.2180   17.2606   -6.6300 H   0  0  0  0  0  0  0  0  0  0  0  0
    1.4570   18.8706   -6.7760 H   0  0  0  0  0  0  0  0  0  0  0  0
    2.0590   18.0776   -5.4890 H   0  0  0  0  0  0  0  0  0  0  0  0
   -0.7690   18.4466   -6.0140 H   0  0  0  0  0  0  0  0  0  0  0  0
    0.0760   19.2276   -4.8480 H   0  0  0  0  0  0  0  0  0  0  0  0
    0.1540   14.8316   -4.8750 H   0  0  0  0  0  0  0  0  0  0  0  0
   -0.4230   13.6956   -6.7080 H   0  0  0  0  0  0  0  0  0  0  0  0
   -3.0800   14.3976   -5.7630 H   0  0  0  0  0  0  0  0  0  0  0  0
   -2.2480   13.0746   -5.2820 H   0  0  0  0  0  0  0  0  0  0  0  0
   -3.8550   12.5036   -6.9810 H   0  0  0  0  0  0  0  0  0  0  0  0
   -2.3180   12.1966   -7.4800 H   0  0  0  0  0  0  0  0  0  0  0  0
   -3.7860   14.4256   -8.2010 H   0  0  0  0  0  0  0  0  0  0  0  0
   -2.1110   15.1516   -9.5810 H   0  0  0  0  0  0  0  0  0  0  0  0
   -1.2270   13.8546   -9.1030 H   0  0  0  0  0  0  0  0  0  0  0  0
   -0.5020   15.7766   -7.8990 H   0  0  0  0  0  0  0  0  0  0  0  0
   -2.0270   16.0226   -7.3630 H   0  0  0  0  0  0  0  0  0  0  0  0
   -3.5580   12.0666   -9.4960 H   0  0  0  0  0  0  0  0  0  0  0  0
   -3.4170   13.4326  -10.4360 H   0  0  0  0  0  0  0  0  0  0  0  0
   -5.5640   13.8876  -10.3390 H   0  0  0  0  0  0  0  0  0  0  0  0
   -5.7020   13.3936   -8.7950 H   0  0  0  0  0  0  0  0  0  0  0  0
   -5.1420   11.2446  -10.4780 H   0  0  0  0  0  0  0  0  0  0  0  0
   -6.5470   12.0446  -10.9070 H   0  0  0  0  0  0  0  0  0  0  0  0
   -5.1210    7.9256   -7.3310 H   0  0  0  0  0  0  0  0  0  0  0  0
   -4.7140    6.3246   -5.6520 H   0  0  0  0  0  0  0  0  0  0  0  0
   -8.4160    9.2516   -5.2580 H   0  0  0  0  0  0  0  0  0  0  0  0
   -9.8190    9.3366   -1.9610 H   0  0  0  0  0  0  0  0  0  0  0  0
   -9.5840    9.6746   -3.5500 H   0  0  0  0  0  0  0  0  0  0  0  0
   -7.6990   10.7666   -3.1750 H   0  0  0  0  0  0  0  0  0  0  0  0
   -7.2670    9.7226   -1.9530 H   0  0  0  0  0  0  0  0  0  0  0  0
   -8.3230   10.8966   -0.4980 H   0  0  0  0  0  0  0  0  0  0  0  0
  -10.3830   11.0806   -1.4590 H   0  0  0  0  0  0  0  0  0  0  0  0
   -9.7990   12.3376   -2.3400 H   0  0  0  0  0  0  0  0  0  0  0  0
  -10.1070   12.3436    0.5380 H   0  0  0  0  0  0  0  0  0  0  0  0
  -11.0200   13.2056   -0.5080 H   0  0  0  0  0  0  0  0  0  0  0  0
   -9.3200   14.5996    0.4700 H   0  0  0  0  0  0  0  0  0  0  0  0
   -9.1190   14.4856   -1.1480 H   0  0  0  0  0  0  0  0  0  0  0  0
   -7.6320   12.9396    0.8020 H   0  0  0  0  0  0  0  0  0  0  0  0
   -7.0140   14.1726   -0.0710 H   0  0  0  0  0  0  0  0  0  0  0  0
   -7.3160   12.9436   -2.0820 H   0  0  0  0  0  0  0  0  0  0  0  0
   -6.4290   12.0456   -1.0290 H   0  0  0  0  0  0  0  0  0  0  0  0
   -9.6600   10.1976   -6.2580 H   0  0  0  0  0  0  0  0  0  0  0  0
  -10.1510    9.4456   -7.6500 H   0  0  0  0  0  0  0  0  0  0  0  0
  -11.0880   12.3866   -9.3260 H   0  0  0  0  0  0  0  0  0  0  0  0
  -10.7420   10.7836   -9.5220 H   0  0  0  0  0  0  0  0  0  0  0  0
   -8.9780   11.8436  -10.5290 H   0  0  0  0  0  0  0  0  0  0  0  0
   -8.8620   12.9406   -9.3040 H   0  0  0  0  0  0  0  0  0  0  0  0
  -13.3520    9.5366   -7.0340 H   0  0  0  0  0  0  0  0  0  0  0  0
  -13.9560   10.7106   -7.9980 H   0  0  0  0  0  0  0  0  0  0  0  0
  -12.6600    9.8536   -8.4830 H   0  0  0  0  0  0  0  0  0  0  0  0
  1  2  1  0  0  0  0
  1 48  1  0  0  0  0
  1 49  1  0  0  0  0
  1 50  1  0  0  0  0
  2  3  1  0  0  0  0
  2 51  1  0  0  0  0
  2 52  1  0  0  0  0
  3  4  1  0  0  0  0
  4  5  2  0  0  0  0
  4  6  1  0  0  0  0
  6  7  1  0  0  0  0
  6 53  1  0  0  0  0
  7  8  1  0  0  0  0
  7 12  1  0  0  0  0
  7 54  1  6  0  0  0
  8  9  1  0  0  0  0
  8 55  1  0  0  0  0
  8 56  1  0  0  0  0
  9 10  1  0  0  0  0
  9 57  1  0  0  0  0
  9 58  1  0  0  0  0
 10 11  1  0  0  0  0
 10 13  1  0  0  0  0
 10 59  1  1  0  0  0
 11 12  1  0  0  0  0
 11 60  1  0  0  0  0
 11 61  1  0  0  0  0
 12 62  1  0  0  0  0
 12 63  1  0  0  0  0
 13 14  1  0  0  0  0
 13 64  1  0  0  0  0
 13 65  1  0  0  0  0
 14 15  1  0  0  0  0
 14 66  1  0  0  0  0
 14 67  1  0  0  0  0
 15 16  1  0  0  0  0
 15 68  1  0  0  0  0
 15 69  1  0  0  0  0
 16 17  1  0  0  0  0
 16 20  1  0  0  0  0
 17 18  2  0  0  0  0
 17 43  1  0  0  0  0
 18 19  1  0  0  0  0
 18 40  1  0  0  0  0
 19 20  2  0  0  0  0
 19 21  1  0  0  0  0
 21 22  2  0  0  0  0
 21 26  1  0  0  0  0
 22 23  1  0  0  0  0
 22 70  1  0  0  0  0
 23 24  2  0  0  0  0
 23 71  1  0  0  0  0
 24 25  1  0  0  0  0
 24 36  1  0  0  0  0
 25 26  2  0  0  0  0
 25 27  1  0  0  0  0
 26 72  1  0  0  0  0
 27 28  1  0  0  0  0
 28 29  1  0  0  0  0
 28 73  1  0  0  0  0
 28 74  1  0  0  0  0
 29 30  1  0  0  0  0
 29 75  1  0  0  0  0
 29 76  1  0  0  0  0
 30 31  1  0  0  0  0
 30 35  1  0  0  0  0
 30 77  1  0  0  0  0
 31 32  1  0  0  0  0
 31 78  1  0  0  0  0
 31 79  1  0  0  0  0
 32 33  1  0  0  0  0
 32 80  1  0  0  0  0
 32 81  1  0  0  0  0
 33 34  1  0  0  0  0
 33 82  1  0  0  0  0
 33 83  1  0  0  0  0
 34 35  1  0  0  0  0
 34 84  1  0  0  0  0
 34 85  1  0  0  0  0
 35 86  1  0  0  0  0
 35 87  1  0  0  0  0
 36 37  1  0  0  0  0
 36 38  1  0  0  0  0
 36 39  1  0  0  0  0
 40 41  1  0  0  0  0
 40 88  1  0  0  0  0
 40 89  1  0  0  0  0
 41 42  1  0  0  0  0
 41 44  1  0  0  0  0
 42 43  1  0  0  0  0
 42 90  1  0  0  0  0
 42 91  1  0  0  0  0
 43 92  1  0  0  0  0
 43 93  1  0  0  0  0
 44 45  2  0  0  0  0
 44 46  2  0  0  0  0
 44 47  1  0  0  0  0
 47 94  1  0  0  0  0
 47 95  1  0  0  0  0
 47 96  1  0  0  0  0
M  CHG  2  10   1  30   1
M  END
