CatS_79_score
 OpenBabel12031814113D

 89 93  0  0  1  0  0  0  0  0999 V2000
   -0.4115   16.5348   -4.6471 C   0  0  0  0  0  0  0  0  0  0  0  0
   -0.9245   15.3528   -5.4831 C   0  0  2  0  0  0  0  0  0  0  0  0
   -2.2985   15.7088   -6.0601 C   0  0  0  0  0  0  0  0  0  0  0  0
   -3.2795   14.5718   -5.9031 C   0  0  0  0  0  0  0  0  0  0  0  0
   -2.6815   13.3068   -6.3341 N   0  3  2  0  0  0  0  0  0  0  0  0
   -1.6555   12.8828   -5.3661 C   0  0  0  0  0  0  0  0  0  0  0  0
   -1.0535   14.0978   -4.6021 C   0  0  0  0  0  0  0  0  0  0  0  0
   -2.1735   13.3208   -7.7571 C   0  0  0  0  0  0  0  0  0  0  0  0
   -3.2445   12.8448   -8.7541 C   0  0  1  0  0  0  0  0  0  0  0  0
   -3.3185   11.3158   -8.8991 C   0  0  0  0  0  0  0  0  0  0  0  0
   -4.4745   10.6088   -8.3061 N   0  0  0  0  0  0  0  0  0  0  0  0
   -5.7955   10.5308   -8.6491 C   0  0  0  0  0  0  0  0  0  0  0  0
   -6.4785    9.6568   -7.9091 C   0  0  0  0  0  0  0  0  0  0  0  0
   -5.5215    9.1838   -6.9811 C   0  0  0  0  0  0  0  0  0  0  0  0
   -4.3695    9.7568   -7.2521 N   0  0  0  0  0  0  0  0  0  0  0  0
   -5.7085    8.2558   -5.8761 C   0  0  0  0  0  0  0  0  0  0  0  0
   -4.8495    7.1888   -5.6961 C   0  0  0  0  0  0  0  0  0  0  0  0
   -4.9965    6.3358   -4.6261 C   0  0  0  0  0  0  0  0  0  0  0  0
   -6.0105    6.5078   -3.7021 C   0  0  0  0  0  0  0  0  0  0  0  0
   -6.8895    7.5618   -3.8981 C   0  0  0  0  0  0  0  0  0  0  0  0
   -6.7365    8.4198   -4.9621 C   0  0  0  0  0  0  0  0  0  0  0  0
   -8.2665    7.8768   -2.7861 S   0  0  0  0  0  0  0  0  0  0  0  0
   -7.9675    9.5348   -2.1071 C   0  0  0  0  0  0  0  0  0  0  0  0
   -8.4045   10.6928   -3.0321 C   0  0  0  0  0  0  0  0  0  0  0  0
   -8.6665   12.0178   -2.3601 N   0  3  2  0  0  0  0  0  0  0  0  0
   -7.6765   12.2708   -1.2461 C   0  0  0  0  0  0  0  0  0  0  0  0
   -8.1405   13.3738   -0.2681 C   0  0  0  0  0  0  0  0  0  0  0  0
   -9.0505   14.3818   -0.9901 C   0  0  1  0  0  0  0  0  0  0  0  0
  -10.3435   13.6888   -1.4781 C   0  0  0  0  0  0  0  0  0  0  0  0
  -10.0965   12.2278   -1.9311 C   0  0  0  0  0  0  0  0  0  0  0  0
   -9.3755   15.4208   -0.1241 F   0  0  0  0  0  0  0  0  0  0  0  0
   -6.0835    5.5278   -2.5331 C   0  0  0  0  0  0  0  0  0  0  0  0
   -7.3565    5.0098   -2.3161 F   0  0  0  0  0  0  0  0  0  0  0  0
   -5.2415    4.4408   -2.7471 F   0  0  0  0  0  0  0  0  0  0  0  0
   -5.6805    6.1358   -1.3501 F   0  0  0  0  0  0  0  0  0  0  0  0
   -7.9675    9.3788   -8.1021 C   0  0  0  0  0  0  0  0  0  0  0  0
   -8.6315   10.0378   -9.2531 N   0  0  0  0  0  0  0  0  0  0  0  0
   -8.0515   11.3828   -9.4401 C   0  0  0  0  0  0  0  0  0  0  0  0
   -6.5335   11.3178   -9.7261 C   0  0  0  0  0  0  0  0  0  0  0  0
   -8.7585    9.0568  -10.5551 S   0  0  0  0  0  0  0  0  0  0  0  0
   -8.4255    7.7308  -10.1551 O   0  0  0  0  0  0  0  0  0  0  0  0
   -7.8435    9.5028  -11.5521 O   0  0  0  0  0  0  0  0  0  0  0  0
  -10.4385    9.0598  -11.2561 C   0  0  0  0  0  0  0  0  0  0  0  0
   -4.5265   13.3668   -8.3721 O   0  0  0  0  0  0  0  0  0  0  0  0
   -2.9775   13.1978   -9.6511 H   0  0  0  0  0  0  0  0  0  0  0  0
   -0.6665   17.3888   -5.0981 H   0  0  0  0  0  0  0  0  0  0  0  0
   -0.8165   16.5018   -3.7321 H   0  0  0  0  0  0  0  0  0  0  0  0
    0.5835   16.4808   -4.5631 H   0  0  0  0  0  0  0  0  0  0  0  0
   -0.2775   15.1658   -6.2221 H   0  0  0  0  0  0  0  0  0  0  0  0
   -2.2045   15.9198   -7.0321 H   0  0  0  0  0  0  0  0  0  0  0  0
   -2.6605   16.5038   -5.5751 H   0  0  0  0  0  0  0  0  0  0  0  0
   -4.0915   14.7618   -6.4581 H   0  0  0  0  0  0  0  0  0  0  0  0
   -3.5205   14.4958   -4.9371 H   0  0  0  0  0  0  0  0  0  0  0  0
   -3.3535   12.6918   -6.3031 H   0  0  0  0  0  0  0  0  0  0  0  0
   -0.9245   12.4058   -5.8561 H   0  0  0  0  0  0  0  0  0  0  0  0
   -2.0885   12.2768   -4.6981 H   0  0  0  0  0  0  0  0  0  0  0  0
   -1.6365   14.3278   -3.8251 H   0  0  0  0  0  0  0  0  0  0  0  0
   -0.1375   13.8608   -4.2761 H   0  0  0  0  0  0  0  0  0  0  0  0
   -1.3775   12.7198   -7.8231 H   0  0  0  0  0  0  0  0  0  0  0  0
   -1.9305   14.2618   -7.9901 H   0  0  0  0  0  0  0  0  0  0  0  0
   -2.4915   10.9378   -8.4831 H   0  0  0  0  0  0  0  0  0  0  0  0
   -3.4205   11.1668   -9.8831 H   0  0  0  0  0  0  0  0  0  0  0  0
   -4.1105    7.0338   -6.3501 H   0  0  0  0  0  0  0  0  0  0  0  0
   -4.3545    5.5778   -4.5131 H   0  0  0  0  0  0  0  0  0  0  0  0
   -7.3785    9.1778   -5.0771 H   0  0  0  0  0  0  0  0  0  0  0  0
   -6.9885    9.6288   -1.9271 H   0  0  0  0  0  0  0  0  0  0  0  0
   -8.5235    9.6098   -1.2801 H   0  0  0  0  0  0  0  0  0  0  0  0
   -9.2435   10.4128   -3.4991 H   0  0  0  0  0  0  0  0  0  0  0  0
   -7.6285   10.8528   -3.6461 H   0  0  0  0  0  0  0  0  0  0  0  0
   -8.5135   12.6518   -2.9971 H   0  0  0  0  0  0  0  0  0  0  0  0
   -6.8035   12.5448   -1.6481 H   0  0  0  0  0  0  0  0  0  0  0  0
   -7.5915   11.4228   -0.7211 H   0  0  0  0  0  0  0  0  0  0  0  0
   -7.3415   13.8498    0.0979 H   0  0  0  0  0  0  0  0  0  0  0  0
   -8.6545   12.9498    0.4789 H   0  0  0  0  0  0  0  0  0  0  0  0
   -8.5615   14.7438   -1.7851 H   0  0  0  0  0  0  0  0  0  0  0  0
  -10.7165   14.2078   -2.2481 H   0  0  0  0  0  0  0  0  0  0  0  0
  -10.9855   13.6668   -0.7111 H   0  0  0  0  0  0  0  0  0  0  0  0
  -10.3035   11.6118   -1.1701 H   0  0  0  0  0  0  0  0  0  0  0  0
  -10.6905   12.0398   -2.7121 H   0  0  0  0  0  0  0  0  0  0  0  0
   -8.4395    9.6708   -7.2711 H   0  0  0  0  0  0  0  0  0  0  0  0
   -8.0255    8.4008   -8.2971 H   0  0  0  0  0  0  0  0  0  0  0  0
   -8.2035   11.9198   -8.6111 H   0  0  0  0  0  0  0  0  0  0  0  0
   -8.4975   11.8048  -10.2281 H   0  0  0  0  0  0  0  0  0  0  0  0
   -6.3855   10.8768  -10.6111 H   0  0  0  0  0  0  0  0  0  0  0  0
   -6.1755   12.2518   -9.7341 H   0  0  0  0  0  0  0  0  0  0  0  0
  -10.5265    9.8308  -11.8861 H   0  0  0  0  0  0  0  0  0  0  0  0
  -10.6015    8.2028  -11.7471 H   0  0  0  0  0  0  0  0  0  0  0  0
  -11.1105    9.1458  -10.5211 H   0  0  0  0  0  0  0  0  0  0  0  0
   -5.0835   13.6038   -9.1751 H   0  0  0  0  0  0  0  0  0  0  0  0
  1  2  1  0  0  0  0
  1 46  1  0  0  0  0
  1 47  1  0  0  0  0
  1 48  1  0  0  0  0
  2  3  1  0  0  0  0
  2  7  1  0  0  0  0
  2 49  1  6  0  0  0
  3  4  1  0  0  0  0
  3 50  1  0  0  0  0
  3 51  1  0  0  0  0
  4  5  1  0  0  0  0
  4 52  1  0  0  0  0
  4 53  1  0  0  0  0
  5  6  1  0  0  0  0
  5  8  1  0  0  0  0
  5 54  1  1  0  0  0
  6  7  1  0  0  0  0
  6 55  1  0  0  0  0
  6 56  1  0  0  0  0
  7 57  1  0  0  0  0
  7 58  1  0  0  0  0
  8  9  1  0  0  0  0
  8 59  1  0  0  0  0
  8 60  1  0  0  0  0
  9 10  1  0  0  0  0
  9 44  1  0  0  0  0
  9 45  1  6  0  0  0
 10 11  1  0  0  0  0
 10 61  1  0  0  0  0
 10 62  1  0  0  0  0
 11 12  1  0  0  0  0
 11 15  1  0  0  0  0
 12 13  2  0  0  0  0
 12 39  1  0  0  0  0
 13 14  1  0  0  0  0
 13 36  1  0  0  0  0
 14 15  2  0  0  0  0
 14 16  1  0  0  0  0
 16 17  2  0  0  0  0
 16 21  1  0  0  0  0
 17 18  1  0  0  0  0
 17 63  1  0  0  0  0
 18 19  2  0  0  0  0
 18 64  1  0  0  0  0
 19 20  1  0  0  0  0
 19 32  1  0  0  0  0
 20 21  2  0  0  0  0
 20 22  1  0  0  0  0
 21 65  1  0  0  0  0
 22 23  1  0  0  0  0
 23 24  1  0  0  0  0
 23 66  1  0  0  0  0
 23 67  1  0  0  0  0
 24 25  1  0  0  0  0
 24 68  1  0  0  0  0
 24 69  1  0  0  0  0
 25 26  1  0  0  0  0
 25 30  1  0  0  0  0
 25 70  1  6  0  0  0
 26 27  1  0  0  0  0
 26 71  1  0  0  0  0
 26 72  1  0  0  0  0
 27 28  1  0  0  0  0
 27 73  1  0  0  0  0
 27 74  1  0  0  0  0
 28 29  1  0  0  0  0
 28 31  1  0  0  0  0
 28 75  1  6  0  0  0
 29 30  1  0  0  0  0
 29 76  1  0  0  0  0
 29 77  1  0  0  0  0
 30 78  1  0  0  0  0
 30 79  1  0  0  0  0
 32 33  1  0  0  0  0
 32 34  1  0  0  0  0
 32 35  1  0  0  0  0
 36 37  1  0  0  0  0
 36 80  1  0  0  0  0
 36 81  1  0  0  0  0
 37 38  1  0  0  0  0
 37 40  1  0  0  0  0
 38 39  1  0  0  0  0
 38 82  1  0  0  0  0
 38 83  1  0  0  0  0
 39 84  1  0  0  0  0
 39 85  1  0  0  0  0
 40 41  2  0  0  0  0
 40 42  2  0  0  0  0
 40 43  1  0  0  0  0
 43 86  1  0  0  0  0
 43 87  1  0  0  0  0
 43 88  1  0  0  0  0
 44 89  1  0  0  0  0
M  CHG  2   5   1  25   1
M  END
