CatS_160_score
 OpenBabel12031814113D

 98102  0  0  1  0  0  0  0  0999 V2000
   -3.9274   17.4070   -3.1249 C   0  0  0  0  0  0  0  0  0  0  0  0
   -3.2634   17.0000   -4.4559 C   0  0  0  0  0  0  0  0  0  0  0  0
   -3.0234   18.3200   -5.2209 C   0  0  0  0  0  0  0  0  0  0  0  0
   -4.2994   16.1630   -5.2349 C   0  0  0  0  0  0  0  0  0  0  0  0
   -1.9154   16.2500   -4.2009 C   0  0  1  0  0  0  0  0  0  0  0  0
   -2.0504   14.7530   -3.9049 C   0  0  0  0  0  0  0  0  0  0  0  0
   -1.4384   13.9100   -4.9989 C   0  0  0  0  0  0  0  0  0  0  0  0
   -1.8774   14.3740   -6.3159 N   0  3  1  0  0  0  0  0  0  0  0  0
   -1.2544   15.6710   -6.6259 C   0  0  0  0  0  0  0  0  0  0  0  0
   -0.8914   16.4541   -5.3289 C   0  0  0  0  0  0  0  0  0  0  0  0
   -1.6774   13.3650   -7.4189 C   0  0  0  0  0  0  0  0  0  0  0  0
   -2.8694   13.1070   -8.3699 C   0  0  1  0  0  0  0  0  0  0  0  0
   -2.9384   11.5760   -8.5409 C   0  0  0  0  0  0  0  0  0  0  0  0
   -4.0254   10.6550   -8.1759 N   0  0  0  0  0  0  0  0  0  0  0  0
   -5.3014   10.6450   -8.6279 C   0  0  0  0  0  0  0  0  0  0  0  0
   -6.0864    9.8030   -7.9559 C   0  0  0  0  0  0  0  0  0  0  0  0
   -5.2234    9.2540   -6.9769 C   0  0  0  0  0  0  0  0  0  0  0  0
   -4.0214    9.7730   -7.1449 N   0  0  0  0  0  0  0  0  0  0  0  0
   -5.5604    8.3280   -5.9059 C   0  0  0  0  0  0  0  0  0  0  0  0
   -4.8644    7.1400   -5.7809 C   0  0  0  0  0  0  0  0  0  0  0  0
   -5.1354    6.2730   -4.7489 C   0  0  0  0  0  0  0  0  0  0  0  0
   -6.1004    6.5500   -3.7989 C   0  0  0  0  0  0  0  0  0  0  0  0
   -6.8154    7.7350   -3.9279 C   0  0  0  0  0  0  0  0  0  0  0  0
   -6.5464    8.5960   -4.9709 C   0  0  0  0  0  0  0  0  0  0  0  0
   -8.0754    8.2900   -2.7599 S   0  0  0  0  0  0  0  0  0  0  0  0
   -7.9384    9.9700   -2.0769 C   0  0  0  0  0  0  0  0  0  0  0  0
   -9.3434   10.5100   -1.7259 C   0  0  0  0  0  0  0  0  0  0  0  0
   -9.6064   11.9180   -2.2009 N   0  3  2  0  0  0  0  0  0  0  0  0
   -8.4294   12.8540   -2.0809 C   0  0  0  0  0  0  0  0  0  0  0  0
   -8.0484   13.0861   -0.5949 C   0  0  0  0  0  0  0  0  0  0  0  0
   -9.2434   12.8780    0.3641 C   0  0  0  0  0  0  0  0  0  0  0  0
  -10.5614   13.3240   -0.2969 C   0  0  0  0  0  0  0  0  0  0  0  0
  -10.8564   12.4930   -1.5719 C   0  0  0  0  0  0  0  0  0  0  0  0
  -10.4974   14.6770   -0.6089 F   0  0  0  0  0  0  0  0  0  0  0  0
  -11.5954   13.1730    0.6201 F   0  0  0  0  0  0  0  0  0  0  0  0
   -6.2454    5.5080   -2.6929 C   0  0  0  0  0  0  0  0  0  0  0  0
   -5.8084    4.2560   -3.1079 F   0  0  0  0  0  0  0  0  0  0  0  0
   -7.5744    5.3940   -2.3009 F   0  0  0  0  0  0  0  0  0  0  0  0
   -5.5214    5.8070   -1.5429 F   0  0  0  0  0  0  0  0  0  0  0  0
   -7.5714    9.6530   -8.2839 C   0  0  0  0  0  0  0  0  0  0  0  0
   -8.0114   10.3240   -9.5359 N   0  0  0  0  0  0  0  0  0  0  0  0
   -7.3604   11.6480   -9.6309 C   0  0  0  0  0  0  0  0  0  0  0  0
   -5.8274   11.5140   -9.7519 C   0  0  0  0  0  0  0  0  0  0  0  0
   -9.6114   10.3270   -9.8319 S   0  0  0  0  0  0  0  0  0  0  0  0
   -9.8054   10.9440  -11.1019 O   0  0  0  0  0  0  0  0  0  0  0  0
  -10.0804    8.9890   -9.6779 O   0  0  0  0  0  0  0  0  0  0  0  0
  -10.4154   11.3420   -8.5639 C   0  0  0  0  0  0  0  0  0  0  0  0
   -4.0934   13.6080   -7.8079 O   0  0  0  0  0  0  0  0  0  0  0  0
   -2.7494   13.5760   -9.2449 H   0  0  0  0  0  0  0  0  0  0  0  0
   -3.3524   17.1010   -2.3669 H   0  0  0  0  0  0  0  0  0  0  0  0
   -4.0294   18.4021   -3.0889 H   0  0  0  0  0  0  0  0  0  0  0  0
   -4.8304   16.9840   -3.0559 H   0  0  0  0  0  0  0  0  0  0  0  0
   -2.0514   18.5500   -5.1779 H   0  0  0  0  0  0  0  0  0  0  0  0
   -3.3024   18.2120   -6.1769 H   0  0  0  0  0  0  0  0  0  0  0  0
   -3.5624   19.0541   -4.8069 H   0  0  0  0  0  0  0  0  0  0  0  0
   -3.8524   15.3400   -5.5889 H   0  0  0  0  0  0  0  0  0  0  0  0
   -5.0504   15.9070   -4.6289 H   0  0  0  0  0  0  0  0  0  0  0  0
   -4.6634   16.7030   -5.9949 H   0  0  0  0  0  0  0  0  0  0  0  0
   -1.5714   16.6840   -3.3689 H   0  0  0  0  0  0  0  0  0  0  0  0
   -3.0214   14.5230   -3.8199 H   0  0  0  0  0  0  0  0  0  0  0  0
   -1.5684   14.5550   -3.0519 H   0  0  0  0  0  0  0  0  0  0  0  0
   -1.7154   12.9600   -4.8629 H   0  0  0  0  0  0  0  0  0  0  0  0
   -0.4484   14.0260   -4.9399 H   0  0  0  0  0  0  0  0  0  0  0  0
   -2.7754   14.5230   -6.2609 H   0  0  0  0  0  0  0  0  0  0  0  0
   -1.8944   16.2100   -7.1739 H   0  0  0  0  0  0  0  0  0  0  0  0
   -0.4054   15.4820   -7.1209 H   0  0  0  0  0  0  0  0  0  0  0  0
   -0.8404   17.4270   -5.5489 H   0  0  0  0  0  0  0  0  0  0  0  0
   -0.0164   16.0931   -5.0059 H   0  0  0  0  0  0  0  0  0  0  0  0
   -1.4364   12.4950   -6.9909 H   0  0  0  0  0  0  0  0  0  0  0  0
   -0.9664   13.7600   -8.0019 H   0  0  0  0  0  0  0  0  0  0  0  0
   -2.1414   11.2330   -8.0439 H   0  0  0  0  0  0  0  0  0  0  0  0
   -3.0564   11.5480   -9.5329 H   0  0  0  0  0  0  0  0  0  0  0  0
   -4.1564    6.9080   -6.4479 H   0  0  0  0  0  0  0  0  0  0  0  0
   -4.6184    5.4210   -4.6829 H   0  0  0  0  0  0  0  0  0  0  0  0
   -7.0784    9.4390   -5.0549 H   0  0  0  0  0  0  0  0  0  0  0  0
   -7.5104   10.5700   -2.7529 H   0  0  0  0  0  0  0  0  0  0  0  0
   -7.3794    9.9440   -1.2489 H   0  0  0  0  0  0  0  0  0  0  0  0
   -9.4494   10.4870   -0.7329 H   0  0  0  0  0  0  0  0  0  0  0  0
  -10.0004    9.9240   -2.1989 H   0  0  0  0  0  0  0  0  0  0  0  0
   -9.7744   11.8570   -3.0949 H   0  0  0  0  0  0  0  0  0  0  0  0
   -8.6634   13.7320   -2.5009 H   0  0  0  0  0  0  0  0  0  0  0  0
   -7.6464   12.4420   -2.5469 H   0  0  0  0  0  0  0  0  0  0  0  0
   -7.7104   14.0210   -0.4919 H   0  0  0  0  0  0  0  0  0  0  0  0
   -7.3484   12.4120   -0.3549 H   0  0  0  0  0  0  0  0  0  0  0  0
   -9.0924   13.4150    1.1961 H   0  0  0  0  0  0  0  0  0  0  0  0
   -9.3104   11.9050    0.5871 H   0  0  0  0  0  0  0  0  0  0  0  0
  -11.3104   13.0820   -2.2389 H   0  0  0  0  0  0  0  0  0  0  0  0
  -11.4354   11.7250   -1.3029 H   0  0  0  0  0  0  0  0  0  0  0  0
   -8.0964   10.0330   -7.5249 H   0  0  0  0  0  0  0  0  0  0  0  0
   -7.7264    8.6760   -8.4259 H   0  0  0  0  0  0  0  0  0  0  0  0
   -7.5784   12.1800   -8.8119 H   0  0  0  0  0  0  0  0  0  0  0  0
   -7.7014   12.1090  -10.4509 H   0  0  0  0  0  0  0  0  0  0  0  0
   -5.4084   12.4190   -9.7009 H   0  0  0  0  0  0  0  0  0  0  0  0
   -5.6014   11.0900  -10.6289 H   0  0  0  0  0  0  0  0  0  0  0  0
  -11.0214   10.7620   -8.0189 H   0  0  0  0  0  0  0  0  0  0  0  0
   -9.7234   11.7540   -7.9719 H   0  0  0  0  0  0  0  0  0  0  0  0
  -10.9464   12.0680   -8.9989 H   0  0  0  0  0  0  0  0  0  0  0  0
   -4.2144   13.2980   -6.8589 H   0  0  0  0  0  0  0  0  0  0  0  0
  1  2  1  0  0  0  0
  1 50  1  0  0  0  0
  1 51  1  0  0  0  0
  1 52  1  0  0  0  0
  2  3  1  0  0  0  0
  2  4  1  0  0  0  0
  2  5  1  0  0  0  0
  3 53  1  0  0  0  0
  3 54  1  0  0  0  0
  3 55  1  0  0  0  0
  4 56  1  0  0  0  0
  4 57  1  0  0  0  0
  4 58  1  0  0  0  0
  5  6  1  0  0  0  0
  5 10  1  0  0  0  0
  5 59  1  1  0  0  0
  6  7  1  0  0  0  0
  6 60  1  0  0  0  0
  6 61  1  0  0  0  0
  7  8  1  0  0  0  0
  7 62  1  0  0  0  0
  7 63  1  0  0  0  0
  8  9  1  0  0  0  0
  8 11  1  0  0  0  0
  8 64  1  1  0  0  0
  9 10  1  0  0  0  0
  9 65  1  0  0  0  0
  9 66  1  0  0  0  0
 10 67  1  0  0  0  0
 10 68  1  0  0  0  0
 11 12  1  0  0  0  0
 11 69  1  0  0  0  0
 11 70  1  0  0  0  0
 12 13  1  0  0  0  0
 12 48  1  0  0  0  0
 12 49  1  6  0  0  0
 13 14  1  0  0  0  0
 13 71  1  0  0  0  0
 13 72  1  0  0  0  0
 14 15  1  0  0  0  0
 14 18  1  0  0  0  0
 15 16  2  0  0  0  0
 15 43  1  0  0  0  0
 16 17  1  0  0  0  0
 16 40  1  0  0  0  0
 17 18  2  0  0  0  0
 17 19  1  0  0  0  0
 19 20  2  0  0  0  0
 19 24  1  0  0  0  0
 20 21  1  0  0  0  0
 20 73  1  0  0  0  0
 21 22  2  0  0  0  0
 21 74  1  0  0  0  0
 22 23  1  0  0  0  0
 22 36  1  0  0  0  0
 23 24  2  0  0  0  0
 23 25  1  0  0  0  0
 24 75  1  0  0  0  0
 25 26  1  0  0  0  0
 26 27  1  0  0  0  0
 26 76  1  0  0  0  0
 26 77  1  0  0  0  0
 27 28  1  0  0  0  0
 27 78  1  0  0  0  0
 27 79  1  0  0  0  0
 28 29  1  0  0  0  0
 28 33  1  0  0  0  0
 28 80  1  6  0  0  0
 29 30  1  0  0  0  0
 29 81  1  0  0  0  0
 29 82  1  0  0  0  0
 30 31  1  0  0  0  0
 30 83  1  0  0  0  0
 30 84  1  0  0  0  0
 31 32  1  0  0  0  0
 31 85  1  0  0  0  0
 31 86  1  0  0  0  0
 32 33  1  0  0  0  0
 32 34  1  0  0  0  0
 32 35  1  0  0  0  0
 33 87  1  0  0  0  0
 33 88  1  0  0  0  0
 36 37  1  0  0  0  0
 36 38  1  0  0  0  0
 36 39  1  0  0  0  0
 40 41  1  0  0  0  0
 40 89  1  0  0  0  0
 40 90  1  0  0  0  0
 41 42  1  0  0  0  0
 41 44  1  0  0  0  0
 42 43  1  0  0  0  0
 42 91  1  0  0  0  0
 42 92  1  0  0  0  0
 43 93  1  0  0  0  0
 43 94  1  0  0  0  0
 44 45  2  0  0  0  0
 44 46  2  0  0  0  0
 44 47  1  0  0  0  0
 47 95  1  0  0  0  0
 47 96  1  0  0  0  0
 47 97  1  0  0  0  0
 48 98  1  0  0  0  0
M  CHG  2   8   1  28   1
M  END
