CatS_142_score
 OpenBabel12031814113D

 87 91  0  0  1  0  0  0  0  0999 V2000
   -9.5572   12.7852   -9.5550 C   0  0  0  0  0  0  0  0  0  0  0  0
  -10.1472   11.4822   -9.9050 N   0  0  0  0  0  0  0  0  0  0  0  0
   -9.7222   10.3052   -9.3810 C   0  0  0  0  0  0  0  0  0  0  0  0
  -10.5682    9.5212   -8.9370 O   0  0  0  0  0  0  0  0  0  0  0  0
   -8.4032    9.9772   -9.3340 N   0  0  0  0  0  0  0  0  0  0  0  0
   -7.5222   10.4112  -10.4370 C   0  0  0  0  0  0  0  0  0  0  0  0
   -6.3252   11.2412   -9.9260 C   0  0  0  0  0  0  0  0  0  0  0  0
   -5.6692   10.5522   -8.7430 C   0  0  0  0  0  0  0  0  0  0  0  0
   -6.3232    9.6832   -7.9680 C   0  0  0  0  0  0  0  0  0  0  0  0
   -5.3412    9.2712   -7.0340 C   0  0  0  0  0  0  0  0  0  0  0  0
   -4.2192    9.9062   -7.3030 N   0  0  0  0  0  0  0  0  0  0  0  0
   -4.3812   10.7312   -8.3590 N   0  0  0  0  0  0  0  0  0  0  0  0
   -3.3212   11.5712   -8.9340 C   0  0  0  0  0  0  0  0  0  0  0  0
   -3.0592   12.8842   -8.1750 C   0  0  2  0  0  0  0  0  0  0  0  0
   -2.2342   12.6522   -6.8930 C   0  0  0  0  0  0  0  0  0  0  0  0
   -2.1812   13.8902   -6.0310 N   0  3  0  0  0  0  0  0  0  0  0  0
   -1.6522   13.6542   -4.6870 C   0  0  0  0  0  0  0  0  0  0  0  0
   -2.0522   14.7682   -3.7510 C   0  0  0  0  0  0  0  0  0  0  0  0
   -1.7982   16.1472   -4.3710 C   0  0  0  0  0  0  0  0  0  0  0  0
   -0.8882   15.9912   -5.6000 C   0  0  0  0  0  0  0  0  0  0  0  0
   -1.4672   15.0122   -6.6630 C   0  0  0  0  0  0  0  0  0  0  0  0
   -4.3002   13.5282   -7.8520 O   0  0  0  0  0  0  0  0  0  0  0  0
   -5.4482    8.2982   -5.9600 C   0  0  0  0  0  0  0  0  0  0  0  0
   -4.6002    7.2102   -5.8420 C   0  0  0  0  0  0  0  0  0  0  0  0
   -4.7362    6.3262   -4.7980 C   0  0  0  0  0  0  0  0  0  0  0  0
   -5.7072    6.4912   -3.8300 C   0  0  0  0  0  0  0  0  0  0  0  0
   -6.5592    7.5812   -3.9550 C   0  0  0  0  0  0  0  0  0  0  0  0
   -6.4332    8.4602   -5.0050 C   0  0  0  0  0  0  0  0  0  0  0  0
   -7.8502    7.9542   -2.7590 S   0  0  0  0  0  0  0  0  0  0  0  0
   -7.6942    9.6482   -2.1380 C   0  0  0  0  0  0  0  0  0  0  0  0
   -9.1102   10.2512   -1.9920 C   0  0  0  0  0  0  0  0  0  0  0  0
   -9.1172   11.7512   -1.8440 N   0  3  2  0  0  0  0  0  0  0  0  0
   -8.0752   12.2622   -0.8790 C   0  0  0  0  0  0  0  0  0  0  0  0
   -8.0642   13.8042   -0.8580 C   0  0  0  0  0  0  0  0  0  0  0  0
   -9.4652   14.3372   -0.4980 C   0  0  2  0  0  0  0  0  0  0  0  0
  -10.5082   13.8142   -1.5040 C   0  0  0  0  0  0  0  0  0  0  0  0
  -10.4952   12.2712   -1.5230 C   0  0  0  0  0  0  0  0  0  0  0  0
   -9.4532   15.7262   -0.5370 F   0  0  0  0  0  0  0  0  0  0  0  0
   -5.7332    5.4392   -2.7210 C   0  0  0  0  0  0  0  0  0  0  0  0
   -7.0302    5.0632   -2.3880 F   0  0  0  0  0  0  0  0  0  0  0  0
   -5.0542    4.2952   -3.1180 F   0  0  0  0  0  0  0  0  0  0  0  0
   -5.1352    5.8702   -1.5400 F   0  0  0  0  0  0  0  0  0  0  0  0
   -7.7842    9.2952   -8.1690 C   0  0  0  0  0  0  0  0  0  0  0  0
   -2.5232   13.4762   -8.7780 H   0  0  0  0  0  0  0  0  0  0  0  0
  -10.1632   13.5132   -9.8750 H   0  0  0  0  0  0  0  0  0  0  0  0
   -9.4472   12.8502   -8.5630 H   0  0  0  0  0  0  0  0  0  0  0  0
   -8.6612   12.8762   -9.9890 H   0  0  0  0  0  0  0  0  0  0  0  0
  -10.8622   11.4712  -10.4210 H   0  0  0  0  0  0  0  0  0  0  0  0
   -8.0542   10.9652  -11.0780 H   0  0  0  0  0  0  0  0  0  0  0  0
   -7.1612    9.5932  -10.8860 H   0  0  0  0  0  0  0  0  0  0  0  0
   -6.6462   12.1462   -9.6490 H   0  0  0  0  0  0  0  0  0  0  0  0
   -5.6532   11.3282  -10.6640 H   0  0  0  0  0  0  0  0  0  0  0  0
   -3.5782   11.7992   -9.8740 H   0  0  0  0  0  0  0  0  0  0  0  0
   -2.4772   11.0392   -8.8770 H   0  0  0  0  0  0  0  0  0  0  0  0
   -1.3022   12.3912   -7.1450 H   0  0  0  0  0  0  0  0  0  0  0  0
   -2.6762   11.9272   -6.3640 H   0  0  0  0  0  0  0  0  0  0  0  0
   -3.0432   14.1692   -5.9310 H   0  0  0  0  0  0  0  0  0  0  0  0
   -0.6552   13.5982   -4.7390 H   0  0  0  0  0  0  0  0  0  0  0  0
   -2.0482   12.8012   -4.3520 H   0  0  0  0  0  0  0  0  0  0  0  0
   -1.5252   14.6932   -2.9040 H   0  0  0  0  0  0  0  0  0  0  0  0
   -3.0302   14.6882   -3.5590 H   0  0  0  0  0  0  0  0  0  0  0  0
   -1.3622   16.7372   -3.6930 H   0  0  0  0  0  0  0  0  0  0  0  0
   -2.6752   16.5372   -4.6560 H   0  0  0  0  0  0  0  0  0  0  0  0
    0.0028   15.6472   -5.3010 H   0  0  0  0  0  0  0  0  0  0  0  0
   -0.8012   16.8892   -6.0330 H   0  0  0  0  0  0  0  0  0  0  0  0
   -0.7172   14.6502   -7.2190 H   0  0  0  0  0  0  0  0  0  0  0  0
   -2.1162   15.5142   -7.2360 H   0  0  0  0  0  0  0  0  0  0  0  0
   -4.5472   13.3882   -6.8870 H   0  0  0  0  0  0  0  0  0  0  0  0
   -3.8822    7.0672   -6.5240 H   0  0  0  0  0  0  0  0  0  0  0  0
   -4.1162    5.5442   -4.7390 H   0  0  0  0  0  0  0  0  0  0  0  0
   -7.0652    9.2322   -5.0770 H   0  0  0  0  0  0  0  0  0  0  0  0
   -7.1562   10.1962   -2.7780 H   0  0  0  0  0  0  0  0  0  0  0  0
   -7.2312    9.6462   -1.2500 H   0  0  0  0  0  0  0  0  0  0  0  0
   -9.5432    9.8502   -1.1870 H   0  0  0  0  0  0  0  0  0  0  0  0
   -9.6042   10.0402   -2.8350 H   0  0  0  0  0  0  0  0  0  0  0  0
   -8.9052   12.0952   -2.6620 H   0  0  0  0  0  0  0  0  0  0  0  0
   -7.1752   11.9272   -1.1580 H   0  0  0  0  0  0  0  0  0  0  0  0
   -8.2962   11.9292    0.0390 H   0  0  0  0  0  0  0  0  0  0  0  0
   -7.7992   14.1472   -1.7600 H   0  0  0  0  0  0  0  0  0  0  0  0
   -7.4092   14.1182   -0.1730 H   0  0  0  0  0  0  0  0  0  0  0  0
   -9.7072   14.0212    0.4210 H   0  0  0  0  0  0  0  0  0  0  0  0
  -10.2942   14.1602   -2.4170 H   0  0  0  0  0  0  0  0  0  0  0  0
  -11.4172   14.1292   -1.2280 H   0  0  0  0  0  0  0  0  0  0  0  0
  -11.1412   11.9462   -2.2120 H   0  0  0  0  0  0  0  0  0  0  0  0
  -10.7602   11.9382   -0.6180 H   0  0  0  0  0  0  0  0  0  0  0  0
   -8.2972    9.5372   -7.3450 H   0  0  0  0  0  0  0  0  0  0  0  0
   -7.8142    8.3122   -8.3460 H   0  0  0  0  0  0  0  0  0  0  0  0
  1  2  1  0  0  0  0
  1 45  1  0  0  0  0
  1 46  1  0  0  0  0
  1 47  1  0  0  0  0
  2  3  1  0  0  0  0
  2 48  1  0  0  0  0
  3  4  2  0  0  0  0
  3  5  1  0  0  0  0
  5  6  1  0  0  0  0
  5 43  1  0  0  0  0
  6  7  1  0  0  0  0
  6 49  1  0  0  0  0
  6 50  1  0  0  0  0
  7  8  1  0  0  0  0
  7 51  1  0  0  0  0
  7 52  1  0  0  0  0
  8  9  2  0  0  0  0
  8 12  1  0  0  0  0
  9 10  1  0  0  0  0
  9 43  1  0  0  0  0
 10 11  2  0  0  0  0
 10 23  1  0  0  0  0
 11 12  1  0  0  0  0
 12 13  1  0  0  0  0
 13 14  1  0  0  0  0
 13 53  1  0  0  0  0
 13 54  1  0  0  0  0
 14 15  1  0  0  0  0
 14 22  1  0  0  0  0
 14 44  1  6  0  0  0
 15 16  1  0  0  0  0
 15 55  1  0  0  0  0
 15 56  1  0  0  0  0
 16 17  1  0  0  0  0
 16 21  1  0  0  0  0
 16 57  1  0  0  0  0
 17 18  1  0  0  0  0
 17 58  1  0  0  0  0
 17 59  1  0  0  0  0
 18 19  1  0  0  0  0
 18 60  1  0  0  0  0
 18 61  1  0  0  0  0
 19 20  1  0  0  0  0
 19 62  1  0  0  0  0
 19 63  1  0  0  0  0
 20 21  1  0  0  0  0
 20 64  1  0  0  0  0
 20 65  1  0  0  0  0
 21 66  1  0  0  0  0
 21 67  1  0  0  0  0
 22 68  1  0  0  0  0
 23 24  2  0  0  0  0
 23 28  1  0  0  0  0
 24 25  1  0  0  0  0
 24 69  1  0  0  0  0
 25 26  2  0  0  0  0
 25 70  1  0  0  0  0
 26 27  1  0  0  0  0
 26 39  1  0  0  0  0
 27 28  2  0  0  0  0
 27 29  1  0  0  0  0
 28 71  1  0  0  0  0
 29 30  1  0  0  0  0
 30 31  1  0  0  0  0
 30 72  1  0  0  0  0
 30 73  1  0  0  0  0
 31 32  1  0  0  0  0
 31 74  1  0  0  0  0
 31 75  1  0  0  0  0
 32 33  1  0  0  0  0
 32 37  1  0  0  0  0
 32 76  1  6  0  0  0
 33 34  1  0  0  0  0
 33 77  1  0  0  0  0
 33 78  1  0  0  0  0
 34 35  1  0  0  0  0
 34 79  1  0  0  0  0
 34 80  1  0  0  0  0
 35 36  1  0  0  0  0
 35 38  1  0  0  0  0
 35 81  1  1  0  0  0
 36 37  1  0  0  0  0
 36 82  1  0  0  0  0
 36 83  1  0  0  0  0
 37 84  1  0  0  0  0
 37 85  1  0  0  0  0
 39 40  1  0  0  0  0
 39 41  1  0  0  0  0
 39 42  1  0  0  0  0
 43 86  1  0  0  0  0
 43 87  1  0  0  0  0
M  CHG  2  16   1  32   1
M  END
