CatS_153_score
 OpenBabel12031814113D

 90 94  0  0  1  0  0  0  0  0999 V2000
   -2.4112   17.8089   -3.1570 C   0  0  0  0  0  0  0  0  0  0  0  0
   -2.2282   16.8289   -4.3310 C   0  0  2  0  0  0  0  0  0  0  0  0
   -2.0582   15.3809   -3.8600 C   0  0  0  0  0  0  0  0  0  0  0  0
   -0.9752   14.6659   -4.6320 C   0  0  0  0  0  0  0  0  0  0  0  0
   -1.1332   14.8869   -6.0700 N   0  3  2  0  0  0  0  0  0  0  0  0
   -0.7952   16.2799   -6.4050 C   0  0  0  0  0  0  0  0  0  0  0  0
   -1.0162   17.2289   -5.1900 C   0  0  0  0  0  0  0  0  0  0  0  0
   -2.4182   14.3429   -6.6520 C   0  0  0  0  0  0  0  0  0  0  0  0
   -2.6602   12.8159   -6.6040 C   0  0  1  0  0  0  0  0  0  0  0  0
   -2.8142   12.1409   -7.9820 C   0  0  0  0  0  0  0  0  0  0  0  0
   -3.9042   11.1609   -7.8500 N   0  0  0  0  0  0  0  0  0  0  0  0
   -5.1022   11.0619   -8.4840 C   0  0  0  0  0  0  0  0  0  0  0  0
   -5.8622   10.0789   -7.9970 C   0  0  0  0  0  0  0  0  0  0  0  0
   -5.0682    9.5189   -6.9690 C   0  0  0  0  0  0  0  0  0  0  0  0
   -3.9302   10.1719   -6.9320 N   0  0  0  0  0  0  0  0  0  0  0  0
   -5.3732    8.4479   -6.0390 C   0  0  0  0  0  0  0  0  0  0  0  0
   -4.5662    7.3269   -6.0200 C   0  0  0  0  0  0  0  0  0  0  0  0
   -4.8082    6.3059   -5.1360 C   0  0  0  0  0  0  0  0  0  0  0  0
   -5.8572    6.3599   -4.2410 C   0  0  0  0  0  0  0  0  0  0  0  0
   -6.6792    7.4799   -4.2760 C   0  0  0  0  0  0  0  0  0  0  0  0
   -6.4402    8.5079   -5.1620 C   0  0  0  0  0  0  0  0  0  0  0  0
   -8.0792    7.6739   -3.1670 S   0  0  0  0  0  0  0  0  0  0  0  0
   -8.0772    9.4029   -2.6140 C   0  0  0  0  0  0  0  0  0  0  0  0
   -9.1772    9.6439   -1.5600 C   0  0  0  0  0  0  0  0  0  0  0  0
   -9.1812   11.0579   -1.0360 N   0  3  1  0  0  0  0  0  0  0  0  0
   -7.8972   11.7999   -1.3080 C   0  0  0  0  0  0  0  0  0  0  0  0
   -7.8372   13.1419   -0.5370 C   0  0  0  0  0  0  0  0  0  0  0  0
   -9.2342   13.6529   -0.1230 C   0  0  0  0  0  0  0  0  0  0  0  0
  -10.2832   13.3449   -1.2090 C   0  0  0  0  0  0  0  0  0  0  0  0
  -10.4052   11.8249   -1.4730 C   0  0  0  0  0  0  0  0  0  0  0  0
  -11.5172   13.8589   -0.8240 F   0  0  0  0  0  0  0  0  0  0  0  0
   -9.9242   13.9979   -2.3830 F   0  0  0  0  0  0  0  0  0  0  0  0
   -6.0082    5.1649   -3.2990 C   0  0  0  0  0  0  0  0  0  0  0  0
   -6.9752    4.2579   -3.7170 F   0  0  0  0  0  0  0  0  0  0  0  0
   -6.3682    5.5829   -2.0260 F   0  0  0  0  0  0  0  0  0  0  0  0
   -4.8242    4.4439   -3.1810 F   0  0  0  0  0  0  0  0  0  0  0  0
   -7.2592    9.7779   -8.5190 C   0  0  0  0  0  0  0  0  0  0  0  0
   -7.5272   10.3589   -9.8560 N   0  0  0  0  0  0  0  0  0  0  0  0
   -7.0982   11.7759   -9.8670 C   0  0  0  0  0  0  0  0  0  0  0  0
   -5.5782   11.9449   -9.6230 C   0  0  0  0  0  0  0  0  0  0  0  0
   -8.9642   10.0019  -10.5350 S   0  0  0  0  0  0  0  0  0  0  0  0
   -9.1402    8.5899  -10.4360 O   0  0  0  0  0  0  0  0  0  0  0  0
   -8.9672   10.5999  -11.8310 O   0  0  0  0  0  0  0  0  0  0  0  0
  -10.2642   10.7999   -9.5510 C   0  0  0  0  0  0  0  0  0  0  0  0
   -1.6852   12.1299   -5.8050 O   0  0  0  0  0  0  0  0  0  0  0  0
   -3.4012   16.9119   -5.1540 O   0  0  0  0  0  0  0  0  0  0  0  0
   -3.5512   12.7269   -6.1560 H   0  0  0  0  0  0  0  0  0  0  0  0
   -1.6942   18.5069   -3.2000 H   0  0  0  0  0  0  0  0  0  0  0  0
   -3.3092   18.2449   -3.2170 H   0  0  0  0  0  0  0  0  0  0  0  0
   -2.3462   17.3129   -2.2900 H   0  0  0  0  0  0  0  0  0  0  0  0
   -2.9292   14.9039   -3.9830 H   0  0  0  0  0  0  0  0  0  0  0  0
   -1.7812   15.4159   -2.9000 H   0  0  0  0  0  0  0  0  0  0  0  0
   -1.0232   13.6869   -4.4420 H   0  0  0  0  0  0  0  0  0  0  0  0
   -0.0852   15.0229   -4.3480 H   0  0  0  0  0  0  0  0  0  0  0  0
   -0.4812   14.3799   -6.4570 H   0  0  0  0  0  0  0  0  0  0  0  0
   -1.3722   16.5899   -7.1610 H   0  0  0  0  0  0  0  0  0  0  0  0
    0.1658   16.3329   -6.6760 H   0  0  0  0  0  0  0  0  0  0  0  0
   -1.1522   18.1579   -5.5330 H   0  0  0  0  0  0  0  0  0  0  0  0
   -0.2052   17.1529   -4.6100 H   0  0  0  0  0  0  0  0  0  0  0  0
   -2.4502   14.6189   -7.6110 H   0  0  0  0  0  0  0  0  0  0  0  0
   -3.1332   14.7199   -6.0630 H   0  0  0  0  0  0  0  0  0  0  0  0
   -1.9642   11.6839   -8.2400 H   0  0  0  0  0  0  0  0  0  0  0  0
   -3.0212   12.8139   -8.6920 H   0  0  0  0  0  0  0  0  0  0  0  0
   -3.7962    7.2609   -6.6560 H   0  0  0  0  0  0  0  0  0  0  0  0
   -4.2102    5.5029   -5.1390 H   0  0  0  0  0  0  0  0  0  0  0  0
   -7.0432    9.3039   -5.1690 H   0  0  0  0  0  0  0  0  0  0  0  0
   -8.2362    9.9999   -3.4000 H   0  0  0  0  0  0  0  0  0  0  0  0
   -7.1892    9.6049   -2.2000 H   0  0  0  0  0  0  0  0  0  0  0  0
   -9.0312    9.0169   -0.7940 H   0  0  0  0  0  0  0  0  0  0  0  0
  -10.0592    9.4829   -2.0030 H   0  0  0  0  0  0  0  0  0  0  0  0
   -9.2392   10.9899   -0.1300 H   0  0  0  0  0  0  0  0  0  0  0  0
   -7.8282   11.9829   -2.2890 H   0  0  0  0  0  0  0  0  0  0  0  0
   -7.1362   11.2289   -1.0000 H   0  0  0  0  0  0  0  0  0  0  0  0
   -7.4002   13.8289   -1.1180 H   0  0  0  0  0  0  0  0  0  0  0  0
   -7.3142   12.9859    0.3020 H   0  0  0  0  0  0  0  0  0  0  0  0
   -9.1922   14.6419    0.0210 H   0  0  0  0  0  0  0  0  0  0  0  0
   -9.5062   13.1869    0.7190 H   0  0  0  0  0  0  0  0  0  0  0  0
  -10.5422   11.6789   -2.4540 H   0  0  0  0  0  0  0  0  0  0  0  0
  -11.1802   11.4849   -0.9390 H   0  0  0  0  0  0  0  0  0  0  0  0
   -7.9272   10.1459   -7.8730 H   0  0  0  0  0  0  0  0  0  0  0  0
   -7.3312    8.7859   -8.6120 H   0  0  0  0  0  0  0  0  0  0  0  0
   -7.5942   12.2659   -9.1510 H   0  0  0  0  0  0  0  0  0  0  0  0
   -7.2992   12.1439  -10.7740 H   0  0  0  0  0  0  0  0  0  0  0  0
   -5.3862   12.9009   -9.4020 H   0  0  0  0  0  0  0  0  0  0  0  0
   -5.0932   11.6749  -10.4540 H   0  0  0  0  0  0  0  0  0  0  0  0
  -10.7162   11.4939  -10.1100 H   0  0  0  0  0  0  0  0  0  0  0  0
  -10.9302   10.1159   -9.2540 H   0  0  0  0  0  0  0  0  0  0  0  0
   -9.8582   11.2299   -8.7430 H   0  0  0  0  0  0  0  0  0  0  0  0
   -0.7522   12.3019   -6.1370 H   0  0  0  0  0  0  0  0  0  0  0  0
   -4.0262   16.1429   -4.9780 H   0  0  0  0  0  0  0  0  0  0  0  0
  1 48  1  0  0  0  0
  1 49  1  0  0  0  0
  1 50  1  0  0  0  0
  2  1  1  1  0  0  0
  2  3  1  0  0  0  0
  2  7  1  0  0  0  0
  2 46  1  0  0  0  0
  3  4  1  0  0  0  0
  3 51  1  0  0  0  0
  3 52  1  0  0  0  0
  4  5  1  0  0  0  0
  4 53  1  0  0  0  0
  4 54  1  0  0  0  0
  5  6  1  0  0  0  0
  5  8  1  0  0  0  0
  5 55  1  6  0  0  0
  6  7  1  0  0  0  0
  6 56  1  0  0  0  0
  6 57  1  0  0  0  0
  7 58  1  0  0  0  0
  7 59  1  0  0  0  0
  8  9  1  0  0  0  0
  8 60  1  0  0  0  0
  8 61  1  0  0  0  0
  9 10  1  0  0  0  0
  9 45  1  0  0  0  0
  9 47  1  1  0  0  0
 10 11  1  0  0  0  0
 10 62  1  0  0  0  0
 10 63  1  0  0  0  0
 11 12  1  0  0  0  0
 11 15  1  0  0  0  0
 12 13  2  0  0  0  0
 12 40  1  0  0  0  0
 13 14  1  0  0  0  0
 13 37  1  0  0  0  0
 14 15  2  0  0  0  0
 14 16  1  0  0  0  0
 16 17  2  0  0  0  0
 16 21  1  0  0  0  0
 17 18  1  0  0  0  0
 17 64  1  0  0  0  0
 18 19  2  0  0  0  0
 18 65  1  0  0  0  0
 19 20  1  0  0  0  0
 19 33  1  0  0  0  0
 20 21  2  0  0  0  0
 20 22  1  0  0  0  0
 21 66  1  0  0  0  0
 22 23  1  0  0  0  0
 23 24  1  0  0  0  0
 23 67  1  0  0  0  0
 23 68  1  0  0  0  0
 24 25  1  0  0  0  0
 24 69  1  0  0  0  0
 24 70  1  0  0  0  0
 25 26  1  0  0  0  0
 25 30  1  0  0  0  0
 25 71  1  1  0  0  0
 26 27  1  0  0  0  0
 26 72  1  0  0  0  0
 26 73  1  0  0  0  0
 27 28  1  0  0  0  0
 27 74  1  0  0  0  0
 27 75  1  0  0  0  0
 28 29  1  0  0  0  0
 28 76  1  0  0  0  0
 28 77  1  0  0  0  0
 29 30  1  0  0  0  0
 29 31  1  0  0  0  0
 29 32  1  0  0  0  0
 30 78  1  0  0  0  0
 30 79  1  0  0  0  0
 33 34  1  0  0  0  0
 33 35  1  0  0  0  0
 33 36  1  0  0  0  0
 37 38  1  0  0  0  0
 37 80  1  0  0  0  0
 37 81  1  0  0  0  0
 38 39  1  0  0  0  0
 38 41  1  0  0  0  0
 39 40  1  0  0  0  0
 39 82  1  0  0  0  0
 39 83  1  0  0  0  0
 40 84  1  0  0  0  0
 40 85  1  0  0  0  0
 41 42  2  0  0  0  0
 41 43  2  0  0  0  0
 41 44  1  0  0  0  0
 44 86  1  0  0  0  0
 44 87  1  0  0  0  0
 44 88  1  0  0  0  0
 45 89  1  0  0  0  0
 46 90  1  0  0  0  0
M  CHG  2   5   1  25   1
M  END
