CatS_255_score
 OpenBabel12031814113D

 96100  0  0  1  0  0  0  0  0999 V2000
   -8.2644   14.8617   -1.2261 C   0  0  0  0  0  0  0  0  0  0  0  0
   -8.3674   13.4627   -0.5901 C   0  0  0  0  0  0  0  0  0  0  0  0
   -8.9564   13.6287    0.8259 C   0  0  0  0  0  0  0  0  0  0  0  0
   -9.1784   12.4887   -1.4961 C   0  0  2  0  0  0  0  0  0  0  0  0
   -8.4264   12.0217   -2.7731 C   0  0  0  0  0  0  0  0  0  0  0  0
   -9.3714   11.7087   -3.9561 C   0  0  0  0  0  0  0  0  0  0  0  0
  -10.6774   11.0877   -3.5311 N   0  3  2  0  0  0  0  0  0  0  0  0
  -11.4384   11.9277   -2.5241 C   0  0  0  0  0  0  0  0  0  0  0  0
  -10.5794   13.0277   -1.8601 C   0  0  0  0  0  0  0  0  0  0  0  0
  -10.4604    9.6657   -3.0791 C   0  0  0  0  0  0  0  0  0  0  0  0
   -9.6884    8.7597   -4.0581 C   0  0  0  0  0  0  0  0  0  0  0  0
   -8.3664    8.0187   -3.0611 S   0  0  0  0  0  0  0  0  0  0  0  0
   -6.8794    7.7187   -4.0281 C   0  0  0  0  0  0  0  0  0  0  0  0
   -6.5764    8.6177   -5.0251 C   0  0  0  0  0  0  0  0  0  0  0  0
   -5.4284    8.4727   -5.7851 C   0  0  0  0  0  0  0  0  0  0  0  0
   -4.5944    7.4017   -5.5191 C   0  0  0  0  0  0  0  0  0  0  0  0
   -4.9024    6.5037   -4.5221 C   0  0  0  0  0  0  0  0  0  0  0  0
   -6.0424    6.6437   -3.7571 C   0  0  0  0  0  0  0  0  0  0  0  0
   -6.2824    5.6037   -2.6641 C   0  0  0  0  0  0  0  0  0  0  0  0
   -6.1824    6.1087   -1.3691 F   0  0  0  0  0  0  0  0  0  0  0  0
   -7.5514    5.0477   -2.7761 F   0  0  0  0  0  0  0  0  0  0  0  0
   -5.3624    4.5647   -2.7641 F   0  0  0  0  0  0  0  0  0  0  0  0
   -5.1054    9.4367   -6.8241 C   0  0  0  0  0  0  0  0  0  0  0  0
   -5.9044    9.8587   -7.9141 C   0  0  0  0  0  0  0  0  0  0  0  0
   -5.1384   10.7597   -8.5301 C   0  0  0  0  0  0  0  0  0  0  0  0
   -3.9324   10.9237   -7.9331 N   0  0  0  0  0  0  0  0  0  0  0  0
   -3.9544   10.0797   -6.8731 N   0  0  0  0  0  0  0  0  0  0  0  0
   -2.7834   11.7387   -8.3521 C   0  0  0  0  0  0  0  0  0  0  0  0
   -1.4584   11.0217   -8.6621 C   0  0  2  0  0  0  0  0  0  0  0  0
   -0.9984   10.1267   -7.4851 C   0  0  0  0  0  0  0  0  0  0  0  0
   -1.2444    8.6427   -7.6501 N   0  3  0  0  0  0  0  0  0  0  0  0
   -1.5164    7.9297   -6.3591 C   0  0  0  0  0  0  0  0  0  0  0  0
   -0.2654    7.6477   -5.6021 C   0  0  0  0  0  0  0  0  0  0  0  0
    0.6656    6.8617   -6.4981 C   0  0  0  0  0  0  0  0  0  0  0  0
    1.0776    7.7517   -7.6341 C   0  0  0  0  0  0  0  0  0  0  0  0
   -0.1774    7.9727   -8.4501 C   0  0  0  0  0  0  0  0  0  0  0  0
   -0.4434   11.9967   -8.9461 O   0  0  0  0  0  0  0  0  0  0  0  0
   -5.5964   11.4847   -9.7821 C   0  0  0  0  0  0  0  0  0  0  0  0
   -7.1074   11.2787  -10.0341 C   0  0  0  0  0  0  0  0  0  0  0  0
   -7.5464    9.8817   -9.8291 N   0  0  0  0  0  0  0  0  0  0  0  0
   -7.3014    9.4947   -8.4141 C   0  0  0  0  0  0  0  0  0  0  0  0
   -8.9194    9.4367  -10.6251 S   0  0  0  0  0  0  0  0  0  0  0  0
   -8.8064    9.7557  -12.0071 O   0  0  0  0  0  0  0  0  0  0  0  0
   -9.1214    8.0377  -10.4681 O   0  0  0  0  0  0  0  0  0  0  0  0
  -10.3504   10.3237   -9.9351 C   0  0  0  0  0  0  0  0  0  0  0  0
   -7.0284   12.9657   -0.4551 O   0  0  0  0  0  0  0  0  0  0  0  0
   -1.6074   10.4327   -9.4561 H   0  0  0  0  0  0  0  0  0  0  0  0
   -7.2994   15.0827   -1.3721 H   0  0  0  0  0  0  0  0  0  0  0  0
   -8.7464   14.8717   -2.1011 H   0  0  0  0  0  0  0  0  0  0  0  0
   -8.6764   15.5397   -0.6191 H   0  0  0  0  0  0  0  0  0  0  0  0
   -8.3114   13.2527    1.4939 H   0  0  0  0  0  0  0  0  0  0  0  0
   -9.1104   14.5987    1.0189 H   0  0  0  0  0  0  0  0  0  0  0  0
   -9.8284   13.1417    0.8889 H   0  0  0  0  0  0  0  0  0  0  0  0
   -9.2954   11.6777   -0.9231 H   0  0  0  0  0  0  0  0  0  0  0  0
   -7.9044   11.1967   -2.5521 H   0  0  0  0  0  0  0  0  0  0  0  0
   -7.8324   12.7747   -3.0591 H   0  0  0  0  0  0  0  0  0  0  0  0
   -8.9054   11.0797   -4.5771 H   0  0  0  0  0  0  0  0  0  0  0  0
   -9.5894   12.5787   -4.3981 H   0  0  0  0  0  0  0  0  0  0  0  0
  -11.1854   11.0437   -4.2871 H   0  0  0  0  0  0  0  0  0  0  0  0
  -11.7904   11.3237   -1.8091 H   0  0  0  0  0  0  0  0  0  0  0  0
  -12.1714   12.3907   -3.0231 H   0  0  0  0  0  0  0  0  0  0  0  0
  -11.0374   13.3467   -1.0301 H   0  0  0  0  0  0  0  0  0  0  0  0
  -10.4714   13.7827   -2.5071 H   0  0  0  0  0  0  0  0  0  0  0  0
  -11.3584    9.2537   -2.9181 H   0  0  0  0  0  0  0  0  0  0  0  0
   -9.8894    9.7257   -2.2591 H   0  0  0  0  0  0  0  0  0  0  0  0
   -9.3074    9.2957   -4.8091 H   0  0  0  0  0  0  0  0  0  0  0  0
  -10.2764    8.0687   -4.4741 H   0  0  0  0  0  0  0  0  0  0  0  0
   -7.1934    9.3847   -5.2051 H   0  0  0  0  0  0  0  0  0  0  0  0
   -3.7604    7.2757   -6.0571 H   0  0  0  0  0  0  0  0  0  0  0  0
   -4.2864    5.7367   -4.3461 H   0  0  0  0  0  0  0  0  0  0  0  0
   -2.6034   12.3957   -7.6181 H   0  0  0  0  0  0  0  0  0  0  0  0
   -3.0644   12.1307   -9.2261 H   0  0  0  0  0  0  0  0  0  0  0  0
   -1.4784   10.4307   -6.6621 H   0  0  0  0  0  0  0  0  0  0  0  0
   -0.0054   10.2327   -7.4381 H   0  0  0  0  0  0  0  0  0  0  0  0
   -2.0124    8.5647   -8.1351 H   0  0  0  0  0  0  0  0  0  0  0  0
   -1.9754    7.0637   -6.5511 H   0  0  0  0  0  0  0  0  0  0  0  0
   -2.0974    8.5117   -5.7891 H   0  0  0  0  0  0  0  0  0  0  0  0
   -0.4954    7.1267   -4.7801 H   0  0  0  0  0  0  0  0  0  0  0  0
    0.1546    8.5257   -5.3661 H   0  0  0  0  0  0  0  0  0  0  0  0
    0.1876    6.0517   -6.8381 H   0  0  0  0  0  0  0  0  0  0  0  0
    1.4676    6.5887   -5.9681 H   0  0  0  0  0  0  0  0  0  0  0  0
    1.7926    7.2997   -8.1671 H   0  0  0  0  0  0  0  0  0  0  0  0
    1.4216    8.6137   -7.2621 H   0  0  0  0  0  0  0  0  0  0  0  0
   -0.5114    7.0857   -8.7701 H   0  0  0  0  0  0  0  0  0  0  0  0
    0.0596    8.5757   -9.2111 H   0  0  0  0  0  0  0  0  0  0  0  0
    0.4596   11.5637   -9.0541 H   0  0  0  0  0  0  0  0  0  0  0  0
   -5.0834   11.1367  -10.5671 H   0  0  0  0  0  0  0  0  0  0  0  0
   -5.4304   12.4627   -9.6581 H   0  0  0  0  0  0  0  0  0  0  0  0
   -7.3134   11.5447  -10.9771 H   0  0  0  0  0  0  0  0  0  0  0  0
   -7.5994   11.8427   -9.3711 H   0  0  0  0  0  0  0  0  0  0  0  0
   -7.4244    8.5057   -8.3311 H   0  0  0  0  0  0  0  0  0  0  0  0
   -7.9544   10.0067   -7.8561 H   0  0  0  0  0  0  0  0  0  0  0  0
  -11.0044    9.6567   -9.5771 H   0  0  0  0  0  0  0  0  0  0  0  0
  -10.0484   10.9297   -9.1991 H   0  0  0  0  0  0  0  0  0  0  0  0
  -10.7834   10.8707  -10.6511 H   0  0  0  0  0  0  0  0  0  0  0  0
   -6.3894   13.6927   -0.1751 H   0  0  0  0  0  0  0  0  0  0  0  0
  1  2  1  0  0  0  0
  1 48  1  0  0  0  0
  1 49  1  0  0  0  0
  1 50  1  0  0  0  0
  2  3  1  0  0  0  0
  2  4  1  0  0  0  0
  2 46  1  0  0  0  0
  3 51  1  0  0  0  0
  3 52  1  0  0  0  0
  3 53  1  0  0  0  0
  4  5  1  0  0  0  0
  4  9  1  0  0  0  0
  4 54  1  1  0  0  0
  5  6  1  0  0  0  0
  5 55  1  0  0  0  0
  5 56  1  0  0  0  0
  6  7  1  0  0  0  0
  6 57  1  0  0  0  0
  6 58  1  0  0  0  0
  7  8  1  0  0  0  0
  7 10  1  0  0  0  0
  7 59  1  6  0  0  0
  8  9  1  0  0  0  0
  8 60  1  0  0  0  0
  8 61  1  0  0  0  0
  9 62  1  0  0  0  0
  9 63  1  0  0  0  0
 10 11  1  0  0  0  0
 10 64  1  0  0  0  0
 10 65  1  0  0  0  0
 11 12  1  0  0  0  0
 11 66  1  0  0  0  0
 11 67  1  0  0  0  0
 12 13  1  0  0  0  0
 13 14  2  0  0  0  0
 13 18  1  0  0  0  0
 14 15  1  0  0  0  0
 14 68  1  0  0  0  0
 15 16  2  0  0  0  0
 15 23  1  0  0  0  0
 16 17  1  0  0  0  0
 16 69  1  0  0  0  0
 17 18  2  0  0  0  0
 17 70  1  0  0  0  0
 18 19  1  0  0  0  0
 19 20  1  0  0  0  0
 19 21  1  0  0  0  0
 19 22  1  0  0  0  0
 23 24  1  0  0  0  0
 23 27  2  0  0  0  0
 24 25  2  0  0  0  0
 24 41  1  0  0  0  0
 25 26  1  0  0  0  0
 25 38  1  0  0  0  0
 26 27  1  0  0  0  0
 26 28  1  0  0  0  0
 28 29  1  0  0  0  0
 28 71  1  0  0  0  0
 28 72  1  0  0  0  0
 29 30  1  0  0  0  0
 29 37  1  0  0  0  0
 29 47  1  6  0  0  0
 30 31  1  0  0  0  0
 30 73  1  0  0  0  0
 30 74  1  0  0  0  0
 31 32  1  0  0  0  0
 31 36  1  0  0  0  0
 31 75  1  0  0  0  0
 32 33  1  0  0  0  0
 32 76  1  0  0  0  0
 32 77  1  0  0  0  0
 33 34  1  0  0  0  0
 33 78  1  0  0  0  0
 33 79  1  0  0  0  0
 34 35  1  0  0  0  0
 34 80  1  0  0  0  0
 34 81  1  0  0  0  0
 35 36  1  0  0  0  0
 35 82  1  0  0  0  0
 35 83  1  0  0  0  0
 36 84  1  0  0  0  0
 36 85  1  0  0  0  0
 37 86  1  0  0  0  0
 38 39  1  0  0  0  0
 38 87  1  0  0  0  0
 38 88  1  0  0  0  0
 39 40  1  0  0  0  0
 39 89  1  0  0  0  0
 39 90  1  0  0  0  0
 40 41  1  0  0  0  0
 40 42  1  0  0  0  0
 41 91  1  0  0  0  0
 41 92  1  0  0  0  0
 42 43  2  0  0  0  0
 42 44  2  0  0  0  0
 42 45  1  0  0  0  0
 45 93  1  0  0  0  0
 45 94  1  0  0  0  0
 45 95  1  0  0  0  0
 46 96  1  0  0  0  0
M  CHG  2   7   1  31   1
M  END
