CatS_184_score
 OpenBabel12031814113D

 95 99  0  0  1  0  0  0  0  0999 V2000
    1.4070   12.8004  -13.8813 C   0  0  0  0  0  0  0  0  0  0  0  0
    0.3140   11.7394  -13.6223 C   0  0  2  0  0  0  0  0  0  0  0  0
   -0.1240   11.1274  -14.9733 C   0  0  0  0  0  0  0  0  0  0  0  0
   -1.2940   10.1554  -14.7603 C   0  0  0  0  0  0  0  0  0  0  0  0
   -2.4530   10.8624  -14.0983 N   0  3  1  0  0  0  0  0  0  0  0  0
   -2.0690   11.3894  -12.7363 C   0  0  0  0  0  0  0  0  0  0  0  0
   -0.8650   12.3544  -12.8253 C   0  0  0  0  0  0  0  0  0  0  0  0
   -3.1520   11.9024  -14.9463 C   0  0  0  0  0  0  0  0  0  0  0  0
   -3.6470   11.3674  -16.3073 C   0  0  0  0  0  0  0  0  0  0  0  0
   -4.2640    9.6724  -16.1373 S   0  0  0  0  0  0  0  0  0  0  0  0
   -5.9920    9.8764  -15.6883 C   0  0  0  0  0  0  0  0  0  0  0  0
   -6.2530   10.2064  -14.3803 C   0  0  0  0  0  0  0  0  0  0  0  0
   -7.5440   10.4324  -13.9533 C   0  0  0  0  0  0  0  0  0  0  0  0
   -8.5720   10.3104  -14.8693 C   0  0  0  0  0  0  0  0  0  0  0  0
   -8.3050    9.9814  -16.1773 C   0  0  0  0  0  0  0  0  0  0  0  0
   -7.0170    9.7474  -16.6163 C   0  0  0  0  0  0  0  0  0  0  0  0
   -6.8540    9.3964  -18.0973 C   0  0  0  0  0  0  0  0  0  0  0  0
   -6.1090   10.3404  -18.7943 F   0  0  0  0  0  0  0  0  0  0  0  0
   -8.0950    9.3094  -18.7193 F   0  0  0  0  0  0  0  0  0  0  0  0
   -6.2120    8.1774  -18.3003 F   0  0  0  0  0  0  0  0  0  0  0  0
   -7.7990   10.7984  -12.5723 C   0  0  0  0  0  0  0  0  0  0  0  0
   -8.9760   11.3604  -12.0253 C   0  0  0  0  0  0  0  0  0  0  0  0
   -8.6860   11.4794  -10.7303 C   0  0  0  0  0  0  0  0  0  0  0  0
   -7.4350   11.0514  -10.4293 N   0  0  0  0  0  0  0  0  0  0  0  0
   -6.9220   10.6244  -11.6053 N   0  0  0  0  0  0  0  0  0  0  0  0
   -6.7380   11.0064   -9.1413 C   0  0  0  0  0  0  0  0  0  0  0  0
   -7.1740    9.8334   -8.2393 C   0  0  2  0  0  0  0  0  0  0  0  0
   -6.0910    9.4994   -7.1893 C   0  0  0  0  0  0  0  0  0  0  0  0
   -6.3390    8.2354   -6.4033 N   0  3  0  0  0  0  0  0  0  0  0  0
   -7.3240    8.4064   -5.2713 C   0  0  0  0  0  0  0  0  0  0  0  0
   -7.5600    7.0774   -4.5233 C   0  0  0  0  0  0  0  0  0  0  0  0
   -6.2650    6.4224   -3.9863 C   0  0  0  0  0  0  0  0  0  0  0  0
   -5.2560    6.3154   -5.1583 C   0  0  0  0  0  0  0  0  0  0  0  0
   -5.0400    7.6434   -5.9203 C   0  0  0  0  0  0  0  0  0  0  0  0
   -5.6790    7.2604   -2.8153 C   0  0  0  0  0  0  0  0  0  0  0  0
   -6.6220    4.9854   -3.5123 C   0  0  0  0  0  0  0  0  0  0  0  0
   -7.4980    8.6684   -9.0163 O   0  0  0  0  0  0  0  0  0  0  0  0
   -9.6840   12.0304   -9.7303 C   0  0  0  0  0  0  0  0  0  0  0  0
  -11.1110   11.9934  -10.3203 C   0  0  0  0  0  0  0  0  0  0  0  0
  -11.1530   12.5694  -11.6803 N   0  0  0  0  0  0  0  0  0  0  0  0
  -10.3370   11.7364  -12.5983 C   0  0  0  0  0  0  0  0  0  0  0  0
  -12.6050   13.0944  -12.1943 S   0  0  0  0  0  0  0  0  0  0  0  0
  -12.3930   13.6934  -13.4723 O   0  0  0  0  0  0  0  0  0  0  0  0
  -13.1440   13.9114  -11.1563 O   0  0  0  0  0  0  0  0  0  0  0  0
  -13.6930   11.6484  -12.3783 C   0  0  0  0  0  0  0  0  0  0  0  0
   -8.1720   10.2164   -7.7023 H   0  0  0  0  0  0  0  0  0  0  0  0
    1.6710   12.8584  -15.0513 H   0  0  0  0  0  0  0  0  0  0  0  0
    1.0510   13.8904  -13.5273 H   0  0  0  0  0  0  0  0  0  0  0  0
    2.4110   12.5164  -13.2873 H   0  0  0  0  0  0  0  0  0  0  0  0
    0.7650   10.8474  -12.9553 H   0  0  0  0  0  0  0  0  0  0  0  0
    0.7940   10.5174  -15.4473 H   0  0  0  0  0  0  0  0  0  0  0  0
   -0.4690   11.9794  -15.7433 H   0  0  0  0  0  0  0  0  0  0  0  0
   -0.8840    9.2884  -14.0423 H   0  0  0  0  0  0  0  0  0  0  0  0
   -1.6130    9.6474  -15.7983 H   0  0  0  0  0  0  0  0  0  0  0  0
   -3.0830   10.2204  -13.9503 H   0  0  0  0  0  0  0  0  0  0  0  0
   -1.7530   10.4794  -12.0193 H   0  0  0  0  0  0  0  0  0  0  0  0
   -3.0070   11.9514  -12.2413 H   0  0  0  0  0  0  0  0  0  0  0  0
   -0.4910   12.5954  -11.7103 H   0  0  0  0  0  0  0  0  0  0  0  0
   -1.2210   13.3864  -13.3233 H   0  0  0  0  0  0  0  0  0  0  0  0
   -2.4430   12.8434  -15.1653 H   0  0  0  0  0  0  0  0  0  0  0  0
   -4.0920   12.3194  -14.3243 H   0  0  0  0  0  0  0  0  0  0  0  0
   -2.7450   11.3544  -17.0983 H   0  0  0  0  0  0  0  0  0  0  0  0
   -4.5220   12.0774  -16.7203 H   0  0  0  0  0  0  0  0  0  0  0  0
   -5.5000   10.2914  -13.7303 H   0  0  0  0  0  0  0  0  0  0  0  0
   -9.5150   10.4674  -14.5793 H   0  0  0  0  0  0  0  0  0  0  0  0
   -9.0650    9.9174  -16.8253 H   0  0  0  0  0  0  0  0  0  0  0  0
   -6.9770   12.0364   -8.5733 H   0  0  0  0  0  0  0  0  0  0  0  0
   -5.5520   10.9704   -9.3253 H   0  0  0  0  0  0  0  0  0  0  0  0
   -5.9860   10.3964   -6.3993 H   0  0  0  0  0  0  0  0  0  0  0  0
   -5.0490    9.3924   -7.7763 H   0  0  0  0  0  0  0  0  0  0  0  0
   -6.7050    7.6304   -6.9773 H   0  0  0  0  0  0  0  0  0  0  0  0
   -8.4170    8.7124   -5.6543 H   0  0  0  0  0  0  0  0  0  0  0  0
   -6.9150    9.2584   -4.5353 H   0  0  0  0  0  0  0  0  0  0  0  0
   -8.0660    6.3364   -5.3203 H   0  0  0  0  0  0  0  0  0  0  0  0
   -8.3280    7.2584   -3.6183 H   0  0  0  0  0  0  0  0  0  0  0  0
   -5.6820    5.5304   -5.9593 H   0  0  0  0  0  0  0  0  0  0  0  0
   -4.2030    5.9134   -4.7433 H   0  0  0  0  0  0  0  0  0  0  0  0
   -4.3120    7.4264   -6.8493 H   0  0  0  0  0  0  0  0  0  0  0  0
   -4.5060    8.4484   -5.2093 H   0  0  0  0  0  0  0  0  0  0  0  0
   -5.6230    6.6674   -1.7743 H   0  0  0  0  0  0  0  0  0  0  0  0
   -4.5620    7.6204   -3.0593 H   0  0  0  0  0  0  0  0  0  0  0  0
   -6.3550    8.2284   -2.6053 H   0  0  0  0  0  0  0  0  0  0  0  0
   -6.4300    4.7954   -2.3443 H   0  0  0  0  0  0  0  0  0  0  0  0
   -7.7820    4.7374   -3.7013 H   0  0  0  0  0  0  0  0  0  0  0  0
   -5.9850    4.1574   -4.1043 H   0  0  0  0  0  0  0  0  0  0  0  0
   -8.2960    8.8324   -9.6063 H   0  0  0  0  0  0  0  0  0  0  0  0
   -9.3880   13.1684   -9.4963 H   0  0  0  0  0  0  0  0  0  0  0  0
   -9.6560   11.4124   -8.7043 H   0  0  0  0  0  0  0  0  0  0  0  0
  -11.8230   12.6394   -9.6023 H   0  0  0  0  0  0  0  0  0  0  0  0
  -11.5120   10.8634  -10.3513 H   0  0  0  0  0  0  0  0  0  0  0  0
  -10.1780   12.3344  -13.6263 H   0  0  0  0  0  0  0  0  0  0  0  0
  -10.9080   10.7134  -12.8523 H   0  0  0  0  0  0  0  0  0  0  0  0
  -14.6180   11.7574  -11.6213 H   0  0  0  0  0  0  0  0  0  0  0  0
  -14.1310   11.5894  -13.4923 H   0  0  0  0  0  0  0  0  0  0  0  0
  -13.1060   10.6304  -12.1353 H   0  0  0  0  0  0  0  0  0  0  0  0
  1  2  1  0  0  0  0
  1 47  1  0  0  0  0
  1 48  1  0  0  0  0
  1 49  1  0  0  0  0
  2  3  1  0  0  0  0
  2  7  1  0  0  0  0
  2 50  1  1  0  0  0
  3  4  1  0  0  0  0
  3 51  1  0  0  0  0
  3 52  1  0  0  0  0
  4  5  1  0  0  0  0
  4 53  1  0  0  0  0
  4 54  1  0  0  0  0
  5  6  1  0  0  0  0
  5  8  1  0  0  0  0
  5 55  1  1  0  0  0
  6  7  1  0  0  0  0
  6 56  1  0  0  0  0
  6 57  1  0  0  0  0
  7 58  1  0  0  0  0
  7 59  1  0  0  0  0
  8  9  1  0  0  0  0
  8 60  1  0  0  0  0
  8 61  1  0  0  0  0
  9 10  1  0  0  0  0
  9 62  1  0  0  0  0
  9 63  1  0  0  0  0
 10 11  1  0  0  0  0
 11 12  2  0  0  0  0
 11 16  1  0  0  0  0
 12 13  1  0  0  0  0
 12 64  1  0  0  0  0
 13 14  2  0  0  0  0
 13 21  1  0  0  0  0
 14 15  1  0  0  0  0
 14 65  1  0  0  0  0
 15 16  2  0  0  0  0
 15 66  1  0  0  0  0
 16 17  1  0  0  0  0
 17 18  1  0  0  0  0
 17 19  1  0  0  0  0
 17 20  1  0  0  0  0
 21 22  1  0  0  0  0
 21 25  2  0  0  0  0
 22 23  2  0  0  0  0
 22 41  1  0  0  0  0
 23 24  1  0  0  0  0
 23 38  1  0  0  0  0
 24 25  1  0  0  0  0
 24 26  1  0  0  0  0
 26 27  1  0  0  0  0
 26 67  1  0  0  0  0
 26 68  1  0  0  0  0
 27 28  1  0  0  0  0
 27 37  1  0  0  0  0
 27 46  1  1  0  0  0
 28 29  1  0  0  0  0
 28 69  1  0  0  0  0
 28 70  1  0  0  0  0
 29 30  1  0  0  0  0
 29 34  1  0  0  0  0
 29 71  1  0  0  0  0
 30 31  1  0  0  0  0
 30 72  1  0  0  0  0
 30 73  1  0  0  0  0
 31 32  1  0  0  0  0
 31 74  1  0  0  0  0
 31 75  1  0  0  0  0
 32 33  1  0  0  0  0
 32 35  1  0  0  0  0
 32 36  1  0  0  0  0
 33 34  1  0  0  0  0
 33 76  1  0  0  0  0
 33 77  1  0  0  0  0
 34 78  1  0  0  0  0
 34 79  1  0  0  0  0
 35 80  1  0  0  0  0
 35 81  1  0  0  0  0
 35 82  1  0  0  0  0
 36 83  1  0  0  0  0
 36 84  1  0  0  0  0
 36 85  1  0  0  0  0
 37 86  1  0  0  0  0
 38 39  1  0  0  0  0
 38 87  1  0  0  0  0
 38 88  1  0  0  0  0
 39 40  1  0  0  0  0
 39 89  1  0  0  0  0
 39 90  1  0  0  0  0
 40 41  1  0  0  0  0
 40 42  1  0  0  0  0
 41 91  1  0  0  0  0
 41 92  1  0  0  0  0
 42 43  2  0  0  0  0
 42 44  2  0  0  0  0
 42 45  1  0  0  0  0
 45 93  1  0  0  0  0
 45 94  1  0  0  0  0
 45 95  1  0  0  0  0
M  CHG  2   5   1  29   1
M  END
