CatS_178_score
 OpenBabel12031814113D

 94 98  0  0  1  0  0  0  0  0999 V2000
   -9.3812   12.0310   -9.1289 C   0  0  0  0  0  0  0  0  0  0  0  0
  -10.0892   10.4380   -9.6319 S   0  0  0  0  0  0  0  0  0  0  0  0
  -10.5502    9.7530   -8.4659 O   0  0  0  0  0  0  0  0  0  0  0  0
  -11.1392   10.6880  -10.5699 O   0  0  0  0  0  0  0  0  0  0  0  0
   -8.9972    9.4930  -10.3949 N   0  0  0  0  0  0  0  0  0  0  0  0
   -8.2582    9.9670  -11.5909 C   0  0  0  0  0  0  0  0  0  0  0  0
   -7.1312   10.9750  -11.2579 C   0  0  0  0  0  0  0  0  0  0  0  0
   -6.4522   10.6590   -9.9339 C   0  0  0  0  0  0  0  0  0  0  0  0
   -6.8792    9.6900   -9.1229 C   0  0  0  0  0  0  0  0  0  0  0  0
   -6.0442    9.8120   -7.9889 C   0  0  0  0  0  0  0  0  0  0  0  0
   -5.1892   10.7900   -8.2039 N   0  0  0  0  0  0  0  0  0  0  0  0
   -5.4032   11.3450   -9.4159 N   0  0  0  0  0  0  0  0  0  0  0  0
   -4.6602   12.4920   -9.9479 C   0  0  0  0  0  0  0  0  0  0  0  0
   -3.2132   12.1330  -10.3269 C   0  0  2  0  0  0  0  0  0  0  0  0
   -3.1012   11.7730  -11.8279 C   0  0  0  0  0  0  0  0  0  0  0  0
   -1.6872   11.6640  -12.3499 N   0  3  2  0  0  0  0  0  0  0  0  0
   -0.9222   12.9730  -12.3569 C   0  0  0  0  0  0  0  0  0  0  0  0
   -0.2532   13.2640  -13.7159 C   0  0  0  0  0  0  0  0  0  0  0  0
    0.6248   12.0850  -14.2079 C   0  0  1  0  0  0  0  0  0  0  0  0
   -0.1142   10.7260  -14.0919 C   0  0  0  0  0  0  0  0  0  0  0  0
   -1.5772   10.8680  -13.6289 C   0  0  0  0  0  0  0  0  0  0  0  0
    1.0568   12.4630  -15.5709 N   0  0  0  0  0  0  0  0  0  0  0  0
    2.3108   12.3320  -16.0549 C   0  0  0  0  0  0  0  0  0  0  0  0
    2.6848   12.8690  -17.0869 O   0  0  0  0  0  0  0  0  0  0  0  0
    3.2698   11.4810  -15.2479 C   0  0  0  0  0  0  0  0  0  0  0  0
    2.9778   10.1040  -15.5209 O   0  0  0  0  0  0  0  0  0  0  0  0
   -2.7352   11.0610   -9.5009 O   0  0  0  0  0  0  0  0  0  0  0  0
   -6.0422    9.0360   -6.7649 C   0  0  0  0  0  0  0  0  0  0  0  0
   -4.8612    8.7240   -6.1139 C   0  0  0  0  0  0  0  0  0  0  0  0
   -4.8832    7.9540   -4.9729 C   0  0  0  0  0  0  0  0  0  0  0  0
   -6.0622    7.4570   -4.4549 C   0  0  0  0  0  0  0  0  0  0  0  0
   -7.2422    7.7880   -5.1109 C   0  0  0  0  0  0  0  0  0  0  0  0
   -7.2312    8.5710   -6.2409 C   0  0  0  0  0  0  0  0  0  0  0  0
   -8.8532    7.2100   -4.5689 S   0  0  0  0  0  0  0  0  0  0  0  0
   -9.3882    8.2280   -3.1689 C   0  0  0  0  0  0  0  0  0  0  0  0
   -8.4942    9.4750   -2.9979 C   0  0  0  0  0  0  0  0  0  0  0  0
   -9.0312   10.4510   -1.9829 N   0  3  0  0  0  0  0  0  0  0  0  0
   -8.0632   11.5500   -1.6249 C   0  0  0  0  0  0  0  0  0  0  0  0
   -8.6162   12.3810   -0.4489 C   0  0  0  0  0  0  0  0  0  0  0  0
  -10.0032   12.9540   -0.8059 C   0  0  0  0  0  0  0  0  0  0  0  0
  -10.9782   11.8370   -1.2269 C   0  0  0  0  0  0  0  0  0  0  0  0
  -10.3792   10.9980   -2.3759 C   0  0  0  0  0  0  0  0  0  0  0  0
   -9.8752   13.8780   -1.8339 F   0  0  0  0  0  0  0  0  0  0  0  0
  -10.5222   13.6320    0.2921 F   0  0  0  0  0  0  0  0  0  0  0  0
   -5.8762    6.5790   -3.2159 C   0  0  0  0  0  0  0  0  0  0  0  0
   -5.9492    5.2300   -3.5479 F   0  0  0  0  0  0  0  0  0  0  0  0
   -6.8882    6.8240   -2.2929 F   0  0  0  0  0  0  0  0  0  0  0  0
   -4.6772    6.7570   -2.5379 F   0  0  0  0  0  0  0  0  0  0  0  0
   -8.0502    8.7900   -9.4979 C   0  0  0  0  0  0  0  0  0  0  0  0
   -2.6382   12.9350  -10.1699 H   0  0  0  0  0  0  0  0  0  0  0  0
   -8.4282   12.0700   -9.4269 H   0  0  0  0  0  0  0  0  0  0  0  0
   -9.8972   12.7770   -9.5499 H   0  0  0  0  0  0  0  0  0  0  0  0
   -9.4302   12.1210   -8.1349 H   0  0  0  0  0  0  0  0  0  0  0  0
   -8.9062   10.4070  -12.2119 H   0  0  0  0  0  0  0  0  0  0  0  0
   -7.8232    9.1670  -12.0049 H   0  0  0  0  0  0  0  0  0  0  0  0
   -7.5212   11.8940  -11.2109 H   0  0  0  0  0  0  0  0  0  0  0  0
   -6.4412   10.9120  -11.9779 H   0  0  0  0  0  0  0  0  0  0  0  0
   -4.6442   13.2120   -9.2559 H   0  0  0  0  0  0  0  0  0  0  0  0
   -5.1262   12.7940  -10.7799 H   0  0  0  0  0  0  0  0  0  0  0  0
   -3.5772   12.4760  -12.3559 H   0  0  0  0  0  0  0  0  0  0  0  0
   -3.5102   10.8640  -11.9329 H   0  0  0  0  0  0  0  0  0  0  0  0
   -1.2532   11.1510  -11.7289 H   0  0  0  0  0  0  0  0  0  0  0  0
   -0.2162   12.9350  -11.6499 H   0  0  0  0  0  0  0  0  0  0  0  0
   -1.5782   13.7060  -12.1809 H   0  0  0  0  0  0  0  0  0  0  0  0
    0.3198   14.0770  -13.6249 H   0  0  0  0  0  0  0  0  0  0  0  0
   -0.9802   13.4000  -14.3889 H   0  0  0  0  0  0  0  0  0  0  0  0
    1.4328   11.9340  -13.6389 H   0  0  0  0  0  0  0  0  0  0  0  0
    0.3738   10.1510  -13.4379 H   0  0  0  0  0  0  0  0  0  0  0  0
   -0.1322   10.3200  -15.0059 H   0  0  0  0  0  0  0  0  0  0  0  0
   -1.9602    9.9560  -13.4799 H   0  0  0  0  0  0  0  0  0  0  0  0
   -2.0812   11.3560  -14.3409 H   0  0  0  0  0  0  0  0  0  0  0  0
    0.4588   12.8220  -16.1109 H   0  0  0  0  0  0  0  0  0  0  0  0
    3.1538   11.6690  -14.2719 H   0  0  0  0  0  0  0  0  0  0  0  0
    4.2148   11.6920  -15.4989 H   0  0  0  0  0  0  0  0  0  0  0  0
    3.2408    9.5130  -14.7499 H   0  0  0  0  0  0  0  0  0  0  0  0
   -1.7562   10.8850   -9.6569 H   0  0  0  0  0  0  0  0  0  0  0  0
   -3.9912    9.0570   -6.4739 H   0  0  0  0  0  0  0  0  0  0  0  0
   -4.0212    7.7520   -4.5059 H   0  0  0  0  0  0  0  0  0  0  0  0
   -8.0952    8.8070   -6.6879 H   0  0  0  0  0  0  0  0  0  0  0  0
   -9.3462    7.6800   -2.3329 H   0  0  0  0  0  0  0  0  0  0  0  0
  -10.3232    8.5360   -3.3459 H   0  0  0  0  0  0  0  0  0  0  0  0
   -8.4202    9.9380   -3.8819 H   0  0  0  0  0  0  0  0  0  0  0  0
   -7.6052    9.1620   -2.6689 H   0  0  0  0  0  0  0  0  0  0  0  0
   -9.1732    9.9720   -1.2199 H   0  0  0  0  0  0  0  0  0  0  0  0
   -7.9272   12.1440   -2.4169 H   0  0  0  0  0  0  0  0  0  0  0  0
   -7.1902   11.1430   -1.3539 H   0  0  0  0  0  0  0  0  0  0  0  0
   -7.9872   13.1330   -0.2479 H   0  0  0  0  0  0  0  0  0  0  0  0
   -8.7062   11.7910    0.3541 H   0  0  0  0  0  0  0  0  0  0  0  0
  -11.8382   12.2460   -1.5299 H   0  0  0  0  0  0  0  0  0  0  0  0
  -11.1392   11.2380   -0.4429 H   0  0  0  0  0  0  0  0  0  0  0  0
  -10.2782   11.5750   -3.1879 H   0  0  0  0  0  0  0  0  0  0  0  0
  -10.9932   10.2360   -2.5739 H   0  0  0  0  0  0  0  0  0  0  0  0
   -8.5312    8.5130   -8.6649 H   0  0  0  0  0  0  0  0  0  0  0  0
   -7.6932    7.9890   -9.9789 H   0  0  0  0  0  0  0  0  0  0  0  0
  1  2  1  0  0  0  0
  1 51  1  0  0  0  0
  1 52  1  0  0  0  0
  1 53  1  0  0  0  0
  2  3  2  0  0  0  0
  2  4  2  0  0  0  0
  2  5  1  0  0  0  0
  5  6  1  0  0  0  0
  5 49  1  0  0  0  0
  6  7  1  0  0  0  0
  6 54  1  0  0  0  0
  6 55  1  0  0  0  0
  7  8  1  0  0  0  0
  7 56  1  0  0  0  0
  7 57  1  0  0  0  0
  8  9  2  0  0  0  0
  8 12  1  0  0  0  0
  9 10  1  0  0  0  0
  9 49  1  0  0  0  0
 10 11  2  0  0  0  0
 10 28  1  0  0  0  0
 11 12  1  0  0  0  0
 12 13  1  0  0  0  0
 13 14  1  0  0  0  0
 13 58  1  0  0  0  0
 13 59  1  0  0  0  0
 14 15  1  0  0  0  0
 14 27  1  0  0  0  0
 14 50  1  1  0  0  0
 15 16  1  0  0  0  0
 15 60  1  0  0  0  0
 15 61  1  0  0  0  0
 16 17  1  0  0  0  0
 16 21  1  0  0  0  0
 16 62  1  1  0  0  0
 17 18  1  0  0  0  0
 17 63  1  0  0  0  0
 17 64  1  0  0  0  0
 18 19  1  0  0  0  0
 18 65  1  0  0  0  0
 18 66  1  0  0  0  0
 19 20  1  0  0  0  0
 19 22  1  0  0  0  0
 19 67  1  1  0  0  0
 20 21  1  0  0  0  0
 20 68  1  0  0  0  0
 20 69  1  0  0  0  0
 21 70  1  0  0  0  0
 21 71  1  0  0  0  0
 22 23  1  0  0  0  0
 22 72  1  0  0  0  0
 23 24  2  0  0  0  0
 23 25  1  0  0  0  0
 25 26  1  0  0  0  0
 25 73  1  0  0  0  0
 25 74  1  0  0  0  0
 26 75  1  0  0  0  0
 27 76  1  0  0  0  0
 28 29  2  0  0  0  0
 28 33  1  0  0  0  0
 29 30  1  0  0  0  0
 29 77  1  0  0  0  0
 30 31  2  0  0  0  0
 30 78  1  0  0  0  0
 31 32  1  0  0  0  0
 31 45  1  0  0  0  0
 32 33  2  0  0  0  0
 32 34  1  0  0  0  0
 33 79  1  0  0  0  0
 34 35  1  0  0  0  0
 35 36  1  0  0  0  0
 35 80  1  0  0  0  0
 35 81  1  0  0  0  0
 36 37  1  0  0  0  0
 36 82  1  0  0  0  0
 36 83  1  0  0  0  0
 37 38  1  0  0  0  0
 37 42  1  0  0  0  0
 37 84  1  0  0  0  0
 38 39  1  0  0  0  0
 38 85  1  0  0  0  0
 38 86  1  0  0  0  0
 39 40  1  0  0  0  0
 39 87  1  0  0  0  0
 39 88  1  0  0  0  0
 40 41  1  0  0  0  0
 40 43  1  0  0  0  0
 40 44  1  0  0  0  0
 41 42  1  0  0  0  0
 41 89  1  0  0  0  0
 41 90  1  0  0  0  0
 42 91  1  0  0  0  0
 42 92  1  0  0  0  0
 45 46  1  0  0  0  0
 45 47  1  0  0  0  0
 45 48  1  0  0  0  0
 49 93  1  0  0  0  0
 49 94  1  0  0  0  0
M  CHG  2  16   1  37   1
M  END
