CatS_252_score
 OpenBabel12031814113D

 90 94  0  0  1  0  0  0  0  0999 V2000
  -17.3689    9.5821   -8.1657 C   0  0  0  0  0  0  0  0  0  0  0  0
  -16.3929    9.8561   -9.3257 C   0  0  1  0  0  0  0  0  0  0  0  0
  -15.1649   10.6301   -8.7937 C   0  0  0  0  0  0  0  0  0  0  0  0
  -14.1139   10.8351   -9.9037 C   0  0  0  0  0  0  0  0  0  0  0  0
  -13.7189    9.5251  -10.5417 N   0  3  1  0  0  0  0  0  0  0  0  0
  -14.9149    8.7561  -11.0627 C   0  0  0  0  0  0  0  0  0  0  0  0
  -15.9229    8.5141   -9.9187 C   0  0  0  0  0  0  0  0  0  0  0  0
  -12.5719    9.7301  -11.5097 C   0  0  0  0  0  0  0  0  0  0  0  0
  -11.1359    9.5921  -10.9637 C   0  0  0  0  0  0  0  0  0  0  0  0
  -10.5699   11.1471  -10.2227 S   0  0  0  0  0  0  0  0  0  0  0  0
   -9.5049   12.1161  -11.3057 C   0  0  0  0  0  0  0  0  0  0  0  0
   -8.1469   11.9151  -11.2177 C   0  0  0  0  0  0  0  0  0  0  0  0
   -7.2689   12.6591  -11.9877 C   0  0  0  0  0  0  0  0  0  0  0  0
   -7.7869   13.6191  -12.8357 C   0  0  0  0  0  0  0  0  0  0  0  0
   -9.1449   13.8031  -12.9347 C   0  0  0  0  0  0  0  0  0  0  0  0
  -10.0289   13.0551  -12.1847 C   0  0  0  0  0  0  0  0  0  0  0  0
  -11.5169   13.3281  -12.4037 C   0  0  0  0  0  0  0  0  0  0  0  0
  -11.7679   14.5201  -13.0767 F   0  0  0  0  0  0  0  0  0  0  0  0
  -12.2319   13.3951  -11.2127 F   0  0  0  0  0  0  0  0  0  0  0  0
  -12.0749   12.3061  -13.1647 F   0  0  0  0  0  0  0  0  0  0  0  0
   -5.8299   12.4711  -11.9187 C   0  0  0  0  0  0  0  0  0  0  0  0
   -4.9799   11.8761  -12.8777 C   0  0  0  0  0  0  0  0  0  0  0  0
   -3.7749   11.9291  -12.3087 C   0  0  0  0  0  0  0  0  0  0  0  0
   -3.8009   12.4921  -11.0757 N   0  0  0  0  0  0  0  0  0  0  0  0
   -5.0949   12.8471  -10.8907 N   0  0  0  0  0  0  0  0  0  0  0  0
   -2.7459   12.5841  -10.0567 C   0  0  0  0  0  0  0  0  0  0  0  0
   -2.6099   11.4211   -9.0567 C   0  0  2  0  0  0  0  0  0  0  0  0
   -3.7589   11.4331   -8.0247 C   0  0  0  0  0  0  0  0  0  0  0  0
   -4.6999   10.2591   -8.1347 N   0  3  0  0  0  0  0  0  0  0  0  0
   -6.1039   10.6481   -8.5467 C   0  0  0  0  0  0  0  0  0  0  0  0
   -7.0349    9.4241   -8.6367 C   0  0  0  0  0  0  0  0  0  0  0  0
   -7.0399    8.6651   -7.2997 C   0  0  0  0  0  0  0  0  0  0  0  0
   -5.6069    8.2051   -6.9767 C   0  0  0  0  0  0  0  0  0  0  0  0
   -4.6779    9.4311   -6.8727 C   0  0  0  0  0  0  0  0  0  0  0  0
   -1.3269   11.4621   -8.4117 O   0  0  0  0  0  0  0  0  0  0  0  0
   -2.5369   11.3901  -12.9997 C   0  0  0  0  0  0  0  0  0  0  0  0
   -2.8009   11.1671  -14.5087 C   0  0  0  0  0  0  0  0  0  0  0  0
   -4.0859   10.4781  -14.7657 N   0  0  0  0  0  0  0  0  0  0  0  0
   -5.2049   11.3131  -14.2717 C   0  0  0  0  0  0  0  0  0  0  0  0
   -4.2899    9.7881  -16.2247 S   0  0  0  0  0  0  0  0  0  0  0  0
   -5.5549    9.1271  -16.2157 O   0  0  0  0  0  0  0  0  0  0  0  0
   -3.1619    8.9501  -16.4787 O   0  0  0  0  0  0  0  0  0  0  0  0
   -4.3349   11.0851  -17.4967 C   0  0  0  0  0  0  0  0  0  0  0  0
  -17.0759   10.6141  -10.3367 O   0  0  0  0  0  0  0  0  0  0  0  0
   -2.6839   10.4251   -9.7187 H   0  0  0  0  0  0  0  0  0  0  0  0
  -17.5359    8.4031   -8.0097 H   0  0  0  0  0  0  0  0  0  0  0  0
  -16.9569   10.0531   -7.1417 H   0  0  0  0  0  0  0  0  0  0  0  0
  -18.4249   10.0871   -8.4307 H   0  0  0  0  0  0  0  0  0  0  0  0
  -14.6599   10.0031   -7.9037 H   0  0  0  0  0  0  0  0  0  0  0  0
  -15.5129   11.6991   -8.3717 H   0  0  0  0  0  0  0  0  0  0  0  0
  -13.1459   11.3731   -9.4387 H   0  0  0  0  0  0  0  0  0  0  0  0
  -14.5819   11.5541  -10.7437 H   0  0  0  0  0  0  0  0  0  0  0  0
  -13.3889    9.0101   -9.8657 H   0  0  0  0  0  0  0  0  0  0  0  0
  -14.6259    7.6601  -11.4497 H   0  0  0  0  0  0  0  0  0  0  0  0
  -15.4489    9.3621  -11.9517 H   0  0  0  0  0  0  0  0  0  0  0  0
  -15.3899    7.8801   -9.0487 H   0  0  0  0  0  0  0  0  0  0  0  0
  -16.8639    7.8891  -10.3257 H   0  0  0  0  0  0  0  0  0  0  0  0
  -12.6599   10.8351  -11.9747 H   0  0  0  0  0  0  0  0  0  0  0  0
  -12.6779    8.9571  -12.4227 H   0  0  0  0  0  0  0  0  0  0  0  0
  -10.3909    9.2621  -11.8457 H   0  0  0  0  0  0  0  0  0  0  0  0
  -11.0639    8.7981  -10.0697 H   0  0  0  0  0  0  0  0  0  0  0  0
   -7.7919   11.2311  -10.5817 H   0  0  0  0  0  0  0  0  0  0  0  0
   -7.1689   14.1761  -13.3897 H   0  0  0  0  0  0  0  0  0  0  0  0
   -9.4959   14.4951  -13.5657 H   0  0  0  0  0  0  0  0  0  0  0  0
   -2.9669   13.5721   -9.4097 H   0  0  0  0  0  0  0  0  0  0  0  0
   -1.6959   12.7481  -10.6137 H   0  0  0  0  0  0  0  0  0  0  0  0
   -4.4059   12.4371   -8.1427 H   0  0  0  0  0  0  0  0  0  0  0  0
   -3.2559   11.4291   -6.9347 H   0  0  0  0  0  0  0  0  0  0  0  0
   -4.3719    9.7251   -8.7957 H   0  0  0  0  0  0  0  0  0  0  0  0
   -6.1299   11.1511   -9.6337 H   0  0  0  0  0  0  0  0  0  0  0  0
   -6.5479   11.4201   -7.7427 H   0  0  0  0  0  0  0  0  0  0  0  0
   -6.6429    8.6931   -9.5037 H   0  0  0  0  0  0  0  0  0  0  0  0
   -8.1469    9.7901   -8.8987 H   0  0  0  0  0  0  0  0  0  0  0  0
   -7.7639    7.7111   -7.3837 H   0  0  0  0  0  0  0  0  0  0  0  0
   -7.4339    9.3931   -6.4317 H   0  0  0  0  0  0  0  0  0  0  0  0
   -5.2189    7.4801   -7.8507 H   0  0  0  0  0  0  0  0  0  0  0  0
   -5.6059    7.6091   -5.9347 H   0  0  0  0  0  0  0  0  0  0  0  0
   -3.5659    9.0451   -6.6337 H   0  0  0  0  0  0  0  0  0  0  0  0
   -5.0519   10.1141   -5.9597 H   0  0  0  0  0  0  0  0  0  0  0  0
   -1.2889   10.8311   -7.6297 H   0  0  0  0  0  0  0  0  0  0  0  0
   -2.2489   10.3411  -12.4937 H   0  0  0  0  0  0  0  0  0  0  0  0
   -1.6249   12.1571  -12.8527 H   0  0  0  0  0  0  0  0  0  0  0  0
   -1.9019   10.5031  -14.9447 H   0  0  0  0  0  0  0  0  0  0  0  0
   -2.8049   12.2281  -15.0697 H   0  0  0  0  0  0  0  0  0  0  0  0
   -6.1909   10.6311  -14.2857 H   0  0  0  0  0  0  0  0  0  0  0  0
   -5.3869   12.2371  -15.0147 H   0  0  0  0  0  0  0  0  0  0  0  0
   -3.3309   11.0471  -18.1527 H   0  0  0  0  0  0  0  0  0  0  0  0
   -5.2739   10.8831  -18.2157 H   0  0  0  0  0  0  0  0  0  0  0  0
   -4.4379   12.1781  -17.0137 H   0  0  0  0  0  0  0  0  0  0  0  0
  -16.8789   11.5971  -10.2477 H   0  0  0  0  0  0  0  0  0  0  0  0
  1 46  1  0  0  0  0
  1 47  1  0  0  0  0
  1 48  1  0  0  0  0
  2  1  1  1  0  0  0
  2  3  1  0  0  0  0
  2  7  1  0  0  0  0
  2 44  1  0  0  0  0
  3  4  1  0  0  0  0
  3 49  1  0  0  0  0
  3 50  1  0  0  0  0
  4  5  1  0  0  0  0
  4 51  1  0  0  0  0
  4 52  1  0  0  0  0
  5  6  1  0  0  0  0
  5  8  1  0  0  0  0
  5 53  1  1  0  0  0
  6  7  1  0  0  0  0
  6 54  1  0  0  0  0
  6 55  1  0  0  0  0
  7 56  1  0  0  0  0
  7 57  1  0  0  0  0
  8  9  1  0  0  0  0
  8 58  1  0  0  0  0
  8 59  1  0  0  0  0
  9 10  1  0  0  0  0
  9 60  1  0  0  0  0
  9 61  1  0  0  0  0
 10 11  1  0  0  0  0
 11 12  2  0  0  0  0
 11 16  1  0  0  0  0
 12 13  1  0  0  0  0
 12 62  1  0  0  0  0
 13 14  2  0  0  0  0
 13 21  1  0  0  0  0
 14 15  1  0  0  0  0
 14 63  1  0  0  0  0
 15 16  2  0  0  0  0
 15 64  1  0  0  0  0
 16 17  1  0  0  0  0
 17 18  1  0  0  0  0
 17 19  1  0  0  0  0
 17 20  1  0  0  0  0
 21 22  1  0  0  0  0
 21 25  2  0  0  0  0
 22 23  2  0  0  0  0
 22 39  1  0  0  0  0
 23 24  1  0  0  0  0
 23 36  1  0  0  0  0
 24 25  1  0  0  0  0
 24 26  1  0  0  0  0
 26 27  1  0  0  0  0
 26 65  1  0  0  0  0
 26 66  1  0  0  0  0
 27 28  1  0  0  0  0
 27 35  1  0  0  0  0
 27 45  1  6  0  0  0
 28 29  1  0  0  0  0
 28 67  1  0  0  0  0
 28 68  1  0  0  0  0
 29 30  1  0  0  0  0
 29 34  1  0  0  0  0
 29 69  1  0  0  0  0
 30 31  1  0  0  0  0
 30 70  1  0  0  0  0
 30 71  1  0  0  0  0
 31 32  1  0  0  0  0
 31 72  1  0  0  0  0
 31 73  1  0  0  0  0
 32 33  1  0  0  0  0
 32 74  1  0  0  0  0
 32 75  1  0  0  0  0
 33 34  1  0  0  0  0
 33 76  1  0  0  0  0
 33 77  1  0  0  0  0
 34 78  1  0  0  0  0
 34 79  1  0  0  0  0
 35 80  1  0  0  0  0
 36 37  1  0  0  0  0
 36 81  1  0  0  0  0
 36 82  1  0  0  0  0
 37 38  1  0  0  0  0
 37 83  1  0  0  0  0
 37 84  1  0  0  0  0
 38 39  1  0  0  0  0
 38 40  1  0  0  0  0
 39 85  1  0  0  0  0
 39 86  1  0  0  0  0
 40 41  2  0  0  0  0
 40 42  2  0  0  0  0
 40 43  1  0  0  0  0
 43 87  1  0  0  0  0
 43 88  1  0  0  0  0
 43 89  1  0  0  0  0
 44 90  1  0  0  0  0
M  CHG  2   5   1  29   1
M  END
