CatS_253_score
 OpenBabel12031814113D

 90 94  0  0  1  0  0  0  0  0999 V2000
  -10.4339    8.8509  -10.9724 C   0  0  0  0  0  0  0  0  0  0  0  0
  -10.0699   10.3499  -10.0174 S   0  0  0  0  0  0  0  0  0  0  0  0
  -10.3909   11.4759  -10.8334 O   0  0  0  0  0  0  0  0  0  0  0  0
  -10.7169   10.2459   -8.7514 O   0  0  0  0  0  0  0  0  0  0  0  0
   -8.4689   10.4439   -9.7454 N   0  0  0  0  0  0  0  0  0  0  0  0
   -7.5269   10.4759  -10.8864 C   0  0  0  0  0  0  0  0  0  0  0  0
   -6.1499   11.0369  -10.4634 C   0  0  0  0  0  0  0  0  0  0  0  0
   -5.6939   10.4659   -9.1334 C   0  0  0  0  0  0  0  0  0  0  0  0
   -6.5119    9.7559   -8.3544 C   0  0  0  0  0  0  0  0  0  0  0  0
   -5.7049    9.4149   -7.2444 C   0  0  0  0  0  0  0  0  0  0  0  0
   -4.5169    9.9559   -7.4144 N   0  0  0  0  0  0  0  0  0  0  0  0
   -4.4599   10.6249   -8.5894 N   0  0  0  0  0  0  0  0  0  0  0  0
   -3.3369   11.4579   -9.0394 C   0  0  0  0  0  0  0  0  0  0  0  0
   -3.0739   12.7369   -8.2234 C   0  0  2  0  0  0  0  0  0  0  0  0
   -2.0649   12.5069   -7.0754 C   0  0  0  0  0  0  0  0  0  0  0  0
   -1.3969   13.7599   -6.5604 N   0  3  0  0  0  0  0  0  0  0  0  0
   -1.2469   14.8279   -7.5524 C   0  0  0  0  0  0  0  0  0  0  0  0
   -0.4199   15.9839   -7.0094 C   0  0  0  0  0  0  0  0  0  0  0  0
   -1.0759   16.5489   -5.7614 C   0  0  0  0  0  0  0  0  0  0  0  0
   -1.2789   15.4449   -4.7304 C   0  0  0  0  0  0  0  0  0  0  0  0
   -2.0539   14.2799   -5.3424 C   0  0  0  0  0  0  0  0  0  0  0  0
   -4.3019   13.2639   -7.7034 O   0  0  0  0  0  0  0  0  0  0  0  0
   -6.0599    8.6189   -6.0804 C   0  0  0  0  0  0  0  0  0  0  0  0
   -5.1579    7.7029   -5.5724 C   0  0  0  0  0  0  0  0  0  0  0  0
   -5.4729    6.9459   -4.4714 C   0  0  0  0  0  0  0  0  0  0  0  0
   -6.6929    7.0669   -3.8384 C   0  0  0  0  0  0  0  0  0  0  0  0
   -7.6039    7.9779   -4.3574 C   0  0  0  0  0  0  0  0  0  0  0  0
   -7.2889    8.7419   -5.4594 C   0  0  0  0  0  0  0  0  0  0  0  0
   -9.2349    8.2069   -3.6354 S   0  0  0  0  0  0  0  0  0  0  0  0
   -9.3839    9.9899   -3.3484 C   0  0  0  0  0  0  0  0  0  0  0  0
   -8.4759   10.4429   -2.1864 C   0  0  0  0  0  0  0  0  0  0  0  0
   -7.7909   11.7669   -2.4194 N   0  3  1  0  0  0  0  0  0  0  0  0
   -8.6859   12.8129   -2.9174 C   0  0  0  0  0  0  0  0  0  0  0  0
   -9.7269   13.1789   -1.8634 C   0  0  0  0  0  0  0  0  0  0  0  0
   -9.0839   13.6379   -0.5614 C   0  0  2  0  0  0  0  0  0  0  0  0
   -8.0459   12.6199   -0.1224 C   0  0  0  0  0  0  0  0  0  0  0  0
   -7.0779   12.2729   -1.2464 C   0  0  0  0  0  0  0  0  0  0  0  0
  -10.0019   13.9169    0.6196 C   0  0  0  0  0  0  0  0  0  0  0  0
   -9.7929   13.4529    1.7316 O   0  0  0  0  0  0  0  0  0  0  0  0
  -11.0379   14.7249    0.3416 N   0  0  0  0  0  0  0  0  0  0  0  0
   -6.9429    6.1809   -2.6174 C   0  0  0  0  0  0  0  0  0  0  0  0
   -6.3109    6.6979   -1.4914 F   0  0  0  0  0  0  0  0  0  0  0  0
   -8.2909    6.0469   -2.3004 F   0  0  0  0  0  0  0  0  0  0  0  0
   -6.4499    4.8959   -2.8204 F   0  0  0  0  0  0  0  0  0  0  0  0
   -7.9609    9.4869   -8.7344 C   0  0  0  0  0  0  0  0  0  0  0  0
   -2.6659   13.4009   -8.8494 H   0  0  0  0  0  0  0  0  0  0  0  0
   -9.5779    8.3649  -11.1524 H   0  0  0  0  0  0  0  0  0  0  0  0
  -11.0539    8.2629  -10.4554 H   0  0  0  0  0  0  0  0  0  0  0  0
  -10.8669    9.1009  -11.8384 H   0  0  0  0  0  0  0  0  0  0  0  0
   -7.9109   11.0539  -11.6094 H   0  0  0  0  0  0  0  0  0  0  0  0
   -7.3999    9.5409  -11.2164 H   0  0  0  0  0  0  0  0  0  0  0  0
   -6.2119   12.0329  -10.3874 H   0  0  0  0  0  0  0  0  0  0  0  0
   -5.4809   10.7759  -11.1614 H   0  0  0  0  0  0  0  0  0  0  0  0
   -3.5119   11.7269   -9.9864 H   0  0  0  0  0  0  0  0  0  0  0  0
   -2.5199   10.8919   -8.9224 H   0  0  0  0  0  0  0  0  0  0  0  0
   -1.3549   11.8839   -7.4024 H   0  0  0  0  0  0  0  0  0  0  0  0
   -2.5909   12.1349   -6.3104 H   0  0  0  0  0  0  0  0  0  0  0  0
   -0.5539   13.5189   -6.3104 H   0  0  0  0  0  0  0  0  0  0  0  0
   -2.1509   15.1679   -7.8094 H   0  0  0  0  0  0  0  0  0  0  0  0
   -0.7739   14.4559   -8.3514 H   0  0  0  0  0  0  0  0  0  0  0  0
   -0.3529   16.6929   -7.7114 H   0  0  0  0  0  0  0  0  0  0  0  0
    0.4831   15.6289   -6.7664 H   0  0  0  0  0  0  0  0  0  0  0  0
   -1.9609   16.9469   -6.0044 H   0  0  0  0  0  0  0  0  0  0  0  0
   -0.4779   17.2489   -5.3734 H   0  0  0  0  0  0  0  0  0  0  0  0
   -1.7869   15.8109   -3.9504 H   0  0  0  0  0  0  0  0  0  0  0  0
   -0.3829   15.1149   -4.4324 H   0  0  0  0  0  0  0  0  0  0  0  0
   -2.9739   14.5939   -5.5734 H   0  0  0  0  0  0  0  0  0  0  0  0
   -2.0749   13.5439   -4.6644 H   0  0  0  0  0  0  0  0  0  0  0  0
   -4.5869   12.7759   -6.8724 H   0  0  0  0  0  0  0  0  0  0  0  0
   -4.2649    7.5899   -6.0124 H   0  0  0  0  0  0  0  0  0  0  0  0
   -4.8029    6.2919   -4.1194 H   0  0  0  0  0  0  0  0  0  0  0  0
   -7.9599    9.3929   -5.8164 H   0  0  0  0  0  0  0  0  0  0  0  0
  -10.3349   10.2069   -3.1284 H   0  0  0  0  0  0  0  0  0  0  0  0
   -9.0989   10.4679   -4.1784 H   0  0  0  0  0  0  0  0  0  0  0  0
   -7.7729    9.7459   -2.0434 H   0  0  0  0  0  0  0  0  0  0  0  0
   -9.0669   10.5619   -1.3874 H   0  0  0  0  0  0  0  0  0  0  0  0
   -7.1699   11.6199   -3.0674 H   0  0  0  0  0  0  0  0  0  0  0  0
   -9.1409   12.4789   -3.7424 H   0  0  0  0  0  0  0  0  0  0  0  0
   -8.1269   13.6209   -3.1054 H   0  0  0  0  0  0  0  0  0  0  0  0
  -10.2959   12.3779   -1.6834 H   0  0  0  0  0  0  0  0  0  0  0  0
  -10.2639   13.9419   -2.2224 H   0  0  0  0  0  0  0  0  0  0  0  0
   -8.6959   14.5329   -0.7784 H   0  0  0  0  0  0  0  0  0  0  0  0
   -8.5069   11.7819    0.1706 H   0  0  0  0  0  0  0  0  0  0  0  0
   -7.5169   13.0039    0.6336 H   0  0  0  0  0  0  0  0  0  0  0  0
   -6.4389   11.5769   -0.9164 H   0  0  0  0  0  0  0  0  0  0  0  0
   -6.6049   13.1149   -1.5064 H   0  0  0  0  0  0  0  0  0  0  0  0
  -11.1469   15.0699   -0.4584 H   0  0  0  0  0  0  0  0  0  0  0  0
  -11.6149   14.9179    0.9776 H   0  0  0  0  0  0  0  0  0  0  0  0
   -8.5259    9.5539   -7.9134 H   0  0  0  0  0  0  0  0  0  0  0  0
   -8.0059    8.5719   -9.1344 H   0  0  0  0  0  0  0  0  0  0  0  0
  1  2  1  0  0  0  0
  1 47  1  0  0  0  0
  1 48  1  0  0  0  0
  1 49  1  0  0  0  0
  2  3  2  0  0  0  0
  2  4  2  0  0  0  0
  2  5  1  0  0  0  0
  5  6  1  0  0  0  0
  5 45  1  0  0  0  0
  6  7  1  0  0  0  0
  6 50  1  0  0  0  0
  6 51  1  0  0  0  0
  7  8  1  0  0  0  0
  7 52  1  0  0  0  0
  7 53  1  0  0  0  0
  8  9  2  0  0  0  0
  8 12  1  0  0  0  0
  9 10  1  0  0  0  0
  9 45  1  0  0  0  0
 10 11  2  0  0  0  0
 10 23  1  0  0  0  0
 11 12  1  0  0  0  0
 12 13  1  0  0  0  0
 13 14  1  0  0  0  0
 13 54  1  0  0  0  0
 13 55  1  0  0  0  0
 14 15  1  0  0  0  0
 14 22  1  0  0  0  0
 14 46  1  6  0  0  0
 15 16  1  0  0  0  0
 15 56  1  0  0  0  0
 15 57  1  0  0  0  0
 16 17  1  0  0  0  0
 16 21  1  0  0  0  0
 16 58  1  0  0  0  0
 17 18  1  0  0  0  0
 17 59  1  0  0  0  0
 17 60  1  0  0  0  0
 18 19  1  0  0  0  0
 18 61  1  0  0  0  0
 18 62  1  0  0  0  0
 19 20  1  0  0  0  0
 19 63  1  0  0  0  0
 19 64  1  0  0  0  0
 20 21  1  0  0  0  0
 20 65  1  0  0  0  0
 20 66  1  0  0  0  0
 21 67  1  0  0  0  0
 21 68  1  0  0  0  0
 22 69  1  0  0  0  0
 23 24  2  0  0  0  0
 23 28  1  0  0  0  0
 24 25  1  0  0  0  0
 24 70  1  0  0  0  0
 25 26  2  0  0  0  0
 25 71  1  0  0  0  0
 26 27  1  0  0  0  0
 26 41  1  0  0  0  0
 27 28  2  0  0  0  0
 27 29  1  0  0  0  0
 28 72  1  0  0  0  0
 29 30  1  0  0  0  0
 30 31  1  0  0  0  0
 30 73  1  0  0  0  0
 30 74  1  0  0  0  0
 31 32  1  0  0  0  0
 31 75  1  0  0  0  0
 31 76  1  0  0  0  0
 32 33  1  0  0  0  0
 32 37  1  0  0  0  0
 32 77  1  6  0  0  0
 33 34  1  0  0  0  0
 33 78  1  0  0  0  0
 33 79  1  0  0  0  0
 34 35  1  0  0  0  0
 34 80  1  0  0  0  0
 34 81  1  0  0  0  0
 35 36  1  0  0  0  0
 35 38  1  0  0  0  0
 35 82  1  6  0  0  0
 36 37  1  0  0  0  0
 36 83  1  0  0  0  0
 36 84  1  0  0  0  0
 37 85  1  0  0  0  0
 37 86  1  0  0  0  0
 38 39  2  0  0  0  0
 38 40  1  0  0  0  0
 40 87  1  0  0  0  0
 40 88  1  0  0  0  0
 41 42  1  0  0  0  0
 41 43  1  0  0  0  0
 41 44  1  0  0  0  0
 45 89  1  0  0  0  0
 45 90  1  0  0  0  0
M  CHG  2  16   1  32   1
M  END
