CatS_84_score
 OpenBabel12031814113D

 87 91  0  0  1  0  0  0  0  0999 V2000
   -9.9691    8.3823  -10.9856 C   0  0  0  0  0  0  0  0  0  0  0  0
   -9.9701    9.7913   -9.8426 S   0  0  0  0  0  0  0  0  0  0  0  0
  -10.4511   10.9353  -10.5456 O   0  0  0  0  0  0  0  0  0  0  0  0
  -10.7241    9.4243   -8.6896 O   0  0  0  0  0  0  0  0  0  0  0  0
   -8.4391   10.0953   -9.3386 N   0  0  0  0  0  0  0  0  0  0  0  0
   -7.5011   10.3743  -10.4476 C   0  0  0  0  0  0  0  0  0  0  0  0
   -6.1591   11.0183  -10.0176 C   0  0  0  0  0  0  0  0  0  0  0  0
   -5.6421   10.4473   -8.7096 C   0  0  0  0  0  0  0  0  0  0  0  0
   -6.3961    9.6313   -7.9656 C   0  0  0  0  0  0  0  0  0  0  0  0
   -5.5701    9.3543   -6.8506 C   0  0  0  0  0  0  0  0  0  0  0  0
   -4.4411   10.0063   -6.9996 N   0  0  0  0  0  0  0  0  0  0  0  0
   -4.4211   10.6903   -8.1576 N   0  0  0  0  0  0  0  0  0  0  0  0
   -3.1891   11.2733   -8.6946 C   0  0  0  0  0  0  0  0  0  0  0  0
   -2.5081   12.6063   -8.3386 C   0  0  2  0  0  0  0  0  0  0  0  0
   -2.0511   12.5703   -6.8566 C   0  0  0  0  0  0  0  0  0  0  0  0
   -1.7501   13.9353   -6.2786 N   0  3  2  0  0  0  0  0  0  0  0  0
   -0.7931   14.7583   -7.1066 C   0  0  0  0  0  0  0  0  0  0  0  0
   -0.7231   16.2033   -6.5616 C   0  0  0  0  0  0  0  0  0  0  0  0
   -0.4131   16.2263   -5.0476 C   0  0  0  0  0  0  0  0  0  0  0  0
   -1.3881   15.3293   -4.2596 C   0  0  2  0  0  0  0  0  0  0  0  0
   -1.3061   13.9013   -4.8336 C   0  0  0  0  0  0  0  0  0  0  0  0
   -2.7331   15.8273   -4.3526 O   0  0  0  0  0  0  0  0  0  0  0  0
   -3.3911   13.7143   -8.5576 O   0  0  0  0  0  0  0  0  0  0  0  0
   -5.7911    8.5003   -5.7026 C   0  0  0  0  0  0  0  0  0  0  0  0
   -4.7121    7.8033   -5.1886 C   0  0  0  0  0  0  0  0  0  0  0  0
   -4.8721    6.9623   -4.1156 C   0  0  0  0  0  0  0  0  0  0  0  0
   -6.1061    6.7863   -3.5256 C   0  0  0  0  0  0  0  0  0  0  0  0
   -7.1851    7.4973   -4.0376 C   0  0  0  0  0  0  0  0  0  0  0  0
   -7.0291    8.3463   -5.1106 C   0  0  0  0  0  0  0  0  0  0  0  0
   -8.8401    7.2963   -3.3596 S   0  0  0  0  0  0  0  0  0  0  0  0
   -9.5001    8.8683   -2.7446 C   0  0  0  0  0  0  0  0  0  0  0  0
   -8.2831    9.8023   -2.5936 C   0  0  0  0  0  0  0  0  0  0  0  0
   -8.3861   10.8383   -1.5036 N   0  3  2  0  0  0  0  0  0  0  0  0
   -9.7831   11.4093   -1.4296 C   0  0  0  0  0  0  0  0  0  0  0  0
   -9.9141   12.4513   -0.3006 C   0  0  0  0  0  0  0  0  0  0  0  0
   -8.8781   13.5693   -0.5156 C   0  0  2  0  0  0  0  0  0  0  0  0
   -7.4641   12.9593   -0.4926 C   0  0  0  0  0  0  0  0  0  0  0  0
   -7.3311   11.9133   -1.6156 C   0  0  0  0  0  0  0  0  0  0  0  0
   -8.9961   14.5093    0.5004 F   0  0  0  0  0  0  0  0  0  0  0  0
   -6.1691    5.7923   -2.3676 C   0  0  0  0  0  0  0  0  0  0  0  0
   -6.1671    6.3973   -1.1136 F   0  0  0  0  0  0  0  0  0  0  0  0
   -5.0711    4.9373   -2.3956 F   0  0  0  0  0  0  0  0  0  0  0  0
   -7.3141    5.0063   -2.4336 F   0  0  0  0  0  0  0  0  0  0  0  0
   -7.7871    9.1633   -8.3876 C   0  0  0  0  0  0  0  0  0  0  0  0
   -1.7131   12.7293   -8.9336 H   0  0  0  0  0  0  0  0  0  0  0  0
   -1.1341   15.3273   -3.2916 H   0  0  0  0  0  0  0  0  0  0  0  0
   -9.0321    8.0533  -11.0946 H   0  0  0  0  0  0  0  0  0  0  0  0
  -10.5431    7.6503  -10.6186 H   0  0  0  0  0  0  0  0  0  0  0  0
  -10.3331    8.6673  -11.8716 H   0  0  0  0  0  0  0  0  0  0  0  0
   -7.9531   10.9903  -11.0926 H   0  0  0  0  0  0  0  0  0  0  0  0
   -7.2691    9.4883  -10.8506 H   0  0  0  0  0  0  0  0  0  0  0  0
   -6.2931   12.0053   -9.9096 H   0  0  0  0  0  0  0  0  0  0  0  0
   -5.4811   10.8213  -10.7256 H   0  0  0  0  0  0  0  0  0  0  0  0
   -3.3481   11.3303   -9.6806 H   0  0  0  0  0  0  0  0  0  0  0  0
   -2.5381   10.6633   -8.2446 H   0  0  0  0  0  0  0  0  0  0  0  0
   -1.2281   12.0073   -6.7946 H   0  0  0  0  0  0  0  0  0  0  0  0
   -2.8111   12.1933   -6.3286 H   0  0  0  0  0  0  0  0  0  0  0  0
   -2.5331   14.3973   -6.3076 H   0  0  0  0  0  0  0  0  0  0  0  0
   -1.1051   14.7753   -8.0556 H   0  0  0  0  0  0  0  0  0  0  0  0
    0.1169   14.3483   -7.0566 H   0  0  0  0  0  0  0  0  0  0  0  0
   -1.6021   16.6543   -6.7236 H   0  0  0  0  0  0  0  0  0  0  0  0
    0.0139   16.6823   -7.0386 H   0  0  0  0  0  0  0  0  0  0  0  0
   -0.4881   17.1663   -4.7136 H   0  0  0  0  0  0  0  0  0  0  0  0
    0.5139   15.8783   -4.9106 H   0  0  0  0  0  0  0  0  0  0  0  0
   -0.3661   13.5653   -4.7766 H   0  0  0  0  0  0  0  0  0  0  0  0
   -1.8991   13.2903   -4.3106 H   0  0  0  0  0  0  0  0  0  0  0  0
   -2.7481   16.8003   -4.6046 H   0  0  0  0  0  0  0  0  0  0  0  0
   -3.7531   14.0713   -7.6886 H   0  0  0  0  0  0  0  0  0  0  0  0
   -3.8071    7.9143   -5.5996 H   0  0  0  0  0  0  0  0  0  0  0  0
   -4.0811    6.4683   -3.7556 H   0  0  0  0  0  0  0  0  0  0  0  0
   -7.8171    8.8543   -5.4636 H   0  0  0  0  0  0  0  0  0  0  0  0
   -9.9541    8.7373   -1.8656 H   0  0  0  0  0  0  0  0  0  0  0  0
  -10.1811    9.2503   -3.3696 H   0  0  0  0  0  0  0  0  0  0  0  0
   -8.1481   10.2803   -3.4626 H   0  0  0  0  0  0  0  0  0  0  0  0
   -7.5161    9.2123   -2.3376 H   0  0  0  0  0  0  0  0  0  0  0  0
   -8.2471   10.4113   -0.7106 H   0  0  0  0  0  0  0  0  0  0  0  0
  -10.4311   10.6653   -1.2656 H   0  0  0  0  0  0  0  0  0  0  0  0
   -9.9791   11.8653   -2.2986 H   0  0  0  0  0  0  0  0  0  0  0  0
   -9.7561   12.0093    0.5814 H   0  0  0  0  0  0  0  0  0  0  0  0
  -10.8341   12.8433   -0.3146 H   0  0  0  0  0  0  0  0  0  0  0  0
   -9.0391   14.0123   -1.3966 H   0  0  0  0  0  0  0  0  0  0  0  0
   -7.3031   12.5233    0.3924 H   0  0  0  0  0  0  0  0  0  0  0  0
   -6.7911   13.6843   -0.6336 H   0  0  0  0  0  0  0  0  0  0  0  0
   -7.4231   12.3703   -2.5016 H   0  0  0  0  0  0  0  0  0  0  0  0
   -6.4341   11.4793   -1.5326 H   0  0  0  0  0  0  0  0  0  0  0  0
   -7.7071    8.2673   -8.8216 H   0  0  0  0  0  0  0  0  0  0  0  0
   -8.3551    9.1243   -7.5646 H   0  0  0  0  0  0  0  0  0  0  0  0
  1  2  1  0  0  0  0
  1 47  1  0  0  0  0
  1 48  1  0  0  0  0
  1 49  1  0  0  0  0
  2  3  2  0  0  0  0
  2  4  2  0  0  0  0
  2  5  1  0  0  0  0
  5  6  1  0  0  0  0
  5 44  1  0  0  0  0
  6  7  1  0  0  0  0
  6 50  1  0  0  0  0
  6 51  1  0  0  0  0
  7  8  1  0  0  0  0
  7 52  1  0  0  0  0
  7 53  1  0  0  0  0
  8  9  2  0  0  0  0
  8 12  1  0  0  0  0
  9 10  1  0  0  0  0
  9 44  1  0  0  0  0
 10 11  2  0  0  0  0
 10 24  1  0  0  0  0
 11 12  1  0  0  0  0
 12 13  1  0  0  0  0
 13 14  1  0  0  0  0
 13 54  1  0  0  0  0
 13 55  1  0  0  0  0
 14 15  1  0  0  0  0
 14 23  1  0  0  0  0
 14 45  1  6  0  0  0
 15 16  1  0  0  0  0
 15 56  1  0  0  0  0
 15 57  1  0  0  0  0
 16 17  1  0  0  0  0
 16 21  1  0  0  0  0
 16 58  1  6  0  0  0
 17 18  1  0  0  0  0
 17 59  1  0  0  0  0
 17 60  1  0  0  0  0
 18 19  1  0  0  0  0
 18 61  1  0  0  0  0
 18 62  1  0  0  0  0
 19 20  1  0  0  0  0
 19 63  1  0  0  0  0
 19 64  1  0  0  0  0
 20 21  1  0  0  0  0
 20 22  1  0  0  0  0
 20 46  1  1  0  0  0
 21 65  1  0  0  0  0
 21 66  1  0  0  0  0
 22 67  1  0  0  0  0
 23 68  1  0  0  0  0
 24 25  2  0  0  0  0
 24 29  1  0  0  0  0
 25 26  1  0  0  0  0
 25 69  1  0  0  0  0
 26 27  2  0  0  0  0
 26 70  1  0  0  0  0
 27 28  1  0  0  0  0
 27 40  1  0  0  0  0
 28 29  2  0  0  0  0
 28 30  1  0  0  0  0
 29 71  1  0  0  0  0
 30 31  1  0  0  0  0
 31 32  1  0  0  0  0
 31 72  1  0  0  0  0
 31 73  1  0  0  0  0
 32 33  1  0  0  0  0
 32 74  1  0  0  0  0
 32 75  1  0  0  0  0
 33 34  1  0  0  0  0
 33 38  1  0  0  0  0
 33 76  1  1  0  0  0
 34 35  1  0  0  0  0
 34 77  1  0  0  0  0
 34 78  1  0  0  0  0
 35 36  1  0  0  0  0
 35 79  1  0  0  0  0
 35 80  1  0  0  0  0
 36 37  1  0  0  0  0
 36 39  1  0  0  0  0
 36 81  1  6  0  0  0
 37 38  1  0  0  0  0
 37 82  1  0  0  0  0
 37 83  1  0  0  0  0
 38 84  1  0  0  0  0
 38 85  1  0  0  0  0
 40 41  1  0  0  0  0
 40 42  1  0  0  0  0
 40 43  1  0  0  0  0
 44 86  1  0  0  0  0
 44 87  1  0  0  0  0
M  CHG  2  16   1  33   1
M  END
