CatS_186_score
 OpenBabel12031814113D

 93 97  0  0  1  0  0  0  0  0999 V2000
   -8.4134   14.4488    1.0005 C   0  0  0  0  0  0  0  0  0  0  0  0
   -8.7904   13.1638    0.2475 C   0  0  2  0  0  0  0  0  0  0  0  0
   -7.7224   12.8758   -0.8205 C   0  0  0  0  0  0  0  0  0  0  0  0
   -8.0834   11.5798   -1.5715 C   0  0  0  0  0  0  0  0  0  0  0  0
   -9.4334   11.7168   -2.2395 N   0  3  2  0  0  0  0  0  0  0  0  0
  -10.5174   12.0658   -1.2485 C   0  0  0  0  0  0  0  0  0  0  0  0
  -10.1644   13.3288   -0.4315 C   0  0  0  0  0  0  0  0  0  0  0  0
   -9.8374   10.5508   -3.1145 C   0  0  0  0  0  0  0  0  0  0  0  0
   -8.6704    9.6168   -3.5055 C   0  0  0  0  0  0  0  0  0  0  0  0
   -8.9884    8.4738   -4.8765 S   0  0  0  0  0  0  0  0  0  0  0  0
   -7.8734    8.7878   -6.2495 C   0  0  0  0  0  0  0  0  0  0  0  0
   -8.4304    9.2938   -7.4015 C   0  0  0  0  0  0  0  0  0  0  0  0
   -7.6384    9.5548   -8.5015 C   0  0  0  0  0  0  0  0  0  0  0  0
   -6.2824    9.2998   -8.4195 C   0  0  0  0  0  0  0  0  0  0  0  0
   -5.7324    8.8068   -7.2615 C   0  0  0  0  0  0  0  0  0  0  0  0
   -6.5114    8.5318   -6.1555 C   0  0  0  0  0  0  0  0  0  0  0  0
   -5.7694    7.9848   -4.9315 C   0  0  0  0  0  0  0  0  0  0  0  0
   -4.4374    7.7358   -5.2435 F   0  0  0  0  0  0  0  0  0  0  0  0
   -5.7804    8.8588   -3.8505 F   0  0  0  0  0  0  0  0  0  0  0  0
   -6.3044    6.7878   -4.4585 F   0  0  0  0  0  0  0  0  0  0  0  0
   -8.1874   10.0818   -9.7335 C   0  0  0  0  0  0  0  0  0  0  0  0
   -8.9844   11.2328   -9.9355 C   0  0  0  0  0  0  0  0  0  0  0  0
   -9.1824   11.2358  -11.2565 C   0  0  0  0  0  0  0  0  0  0  0  0
   -8.5864   10.1878  -11.8845 N   0  0  0  0  0  0  0  0  0  0  0  0
   -7.9704    9.5048  -10.8955 N   0  0  0  0  0  0  0  0  0  0  0  0
   -8.5994    9.7778  -13.2955 C   0  0  0  0  0  0  0  0  0  0  0  0
   -7.2424    9.5228  -13.9855 C   0  0  2  0  0  0  0  0  0  0  0  0
   -6.4554   10.8318  -14.2235 C   0  0  0  0  0  0  0  0  0  0  0  0
   -5.3054   11.0708  -13.2715 N   0  3  2  0  0  0  0  0  0  0  0  0
   -5.6164   12.0598  -12.1705 C   0  0  0  0  0  0  0  0  0  0  0  0
   -4.4124   12.2848  -11.2315 C   0  0  0  0  0  0  0  0  0  0  0  0
   -3.1164   12.6738  -11.9715 C   0  0  1  0  0  0  0  0  0  0  0  0
   -2.8454   11.6548  -13.1035 C   0  0  0  0  0  0  0  0  0  0  0  0
   -4.0614   11.4518  -14.0345 C   0  0  0  0  0  0  0  0  0  0  0  0
   -3.1784   14.1278  -12.4965 C   0  0  0  0  0  0  0  0  0  0  0  0
   -2.0394   12.5938  -11.0255 O   0  0  0  0  0  0  0  0  0  0  0  0
   -7.4094    8.7908  -15.2105 O   0  0  0  0  0  0  0  0  0  0  0  0
   -9.9784   12.3378  -11.9325 C   0  0  0  0  0  0  0  0  0  0  0  0
  -10.8244   13.1168  -10.8985 C   0  0  0  0  0  0  0  0  0  0  0  0
  -10.0734   13.5148   -9.6895 N   0  0  0  0  0  0  0  0  0  0  0  0
   -9.5564   12.3008   -9.0045 C   0  0  0  0  0  0  0  0  0  0  0  0
  -10.7954   14.6578   -8.7615 S   0  0  0  0  0  0  0  0  0  0  0  0
  -11.1514   15.7688   -9.5915 O   0  0  0  0  0  0  0  0  0  0  0  0
   -9.9264   14.9858   -7.6715 O   0  0  0  0  0  0  0  0  0  0  0  0
  -12.3184   13.9628   -8.0645 C   0  0  0  0  0  0  0  0  0  0  0  0
   -6.6454    8.8368  -13.2075 H   0  0  0  0  0  0  0  0  0  0  0  0
   -8.4884   15.3868    0.2555 H   0  0  0  0  0  0  0  0  0  0  0  0
   -9.1584   14.6088    1.9275 H   0  0  0  0  0  0  0  0  0  0  0  0
   -7.2874   14.3518    1.4055 H   0  0  0  0  0  0  0  0  0  0  0  0
   -8.8274   12.2438    1.0185 H   0  0  0  0  0  0  0  0  0  0  0  0
   -6.6474   12.7568   -0.3015 H   0  0  0  0  0  0  0  0  0  0  0  0
   -7.6904   13.7898   -1.5985 H   0  0  0  0  0  0  0  0  0  0  0  0
   -8.1094   10.6618   -0.7995 H   0  0  0  0  0  0  0  0  0  0  0  0
   -7.2004   11.4028   -2.3615 H   0  0  0  0  0  0  0  0  0  0  0  0
   -9.3564   12.4338   -2.7985 H   0  0  0  0  0  0  0  0  0  0  0  0
  -10.6424   11.1468   -0.4855 H   0  0  0  0  0  0  0  0  0  0  0  0
  -11.5604   12.2418   -1.8165 H   0  0  0  0  0  0  0  0  0  0  0  0
  -11.0014   13.5078    0.4095 H   0  0  0  0  0  0  0  0  0  0  0  0
  -10.1314   14.2788   -1.1645 H   0  0  0  0  0  0  0  0  0  0  0  0
  -10.3434   10.9698   -4.1205 H   0  0  0  0  0  0  0  0  0  0  0  0
  -10.6664    9.8988   -2.5395 H   0  0  0  0  0  0  0  0  0  0  0  0
   -8.3624    8.9728   -2.5415 H   0  0  0  0  0  0  0  0  0  0  0  0
   -7.7344   10.2718   -3.8675 H   0  0  0  0  0  0  0  0  0  0  0  0
   -9.4134    9.4708   -7.4405 H   0  0  0  0  0  0  0  0  0  0  0  0
   -5.6964    9.4768   -9.2105 H   0  0  0  0  0  0  0  0  0  0  0  0
   -4.7474    8.6378   -7.2245 H   0  0  0  0  0  0  0  0  0  0  0  0
   -9.1664   10.6348  -13.9155 H   0  0  0  0  0  0  0  0  0  0  0  0
   -9.2724    8.7888  -13.3835 H   0  0  0  0  0  0  0  0  0  0  0  0
   -7.1974   11.7708  -14.1195 H   0  0  0  0  0  0  0  0  0  0  0  0
   -6.0384   10.8058  -15.3505 H   0  0  0  0  0  0  0  0  0  0  0  0
   -5.1244   10.2768  -12.8605 H   0  0  0  0  0  0  0  0  0  0  0  0
   -6.4754   11.6628  -11.4355 H   0  0  0  0  0  0  0  0  0  0  0  0
   -5.9654   13.0948  -12.6665 H   0  0  0  0  0  0  0  0  0  0  0  0
   -4.2074   11.2558  -10.6505 H   0  0  0  0  0  0  0  0  0  0  0  0
   -4.6854   13.1318  -10.4255 H   0  0  0  0  0  0  0  0  0  0  0  0
   -2.5874   10.5978  -12.5965 H   0  0  0  0  0  0  0  0  0  0  0  0
   -1.8984   12.0118  -13.7485 H   0  0  0  0  0  0  0  0  0  0  0  0
   -3.7854   10.5988  -14.8335 H   0  0  0  0  0  0  0  0  0  0  0  0
   -4.2844   12.4698  -14.6305 H   0  0  0  0  0  0  0  0  0  0  0  0
   -2.3484   14.7808  -11.9255 H   0  0  0  0  0  0  0  0  0  0  0  0
   -2.9524   14.1888  -13.6735 H   0  0  0  0  0  0  0  0  0  0  0  0
   -4.2474   14.6288  -12.2805 H   0  0  0  0  0  0  0  0  0  0  0  0
   -1.4734   11.7778  -11.1835 H   0  0  0  0  0  0  0  0  0  0  0  0
   -8.0264    8.0058  -15.0885 H   0  0  0  0  0  0  0  0  0  0  0  0
  -10.7324   11.8788  -12.7435 H   0  0  0  0  0  0  0  0  0  0  0  0
   -9.2194   13.0948  -12.4745 H   0  0  0  0  0  0  0  0  0  0  0  0
  -11.7414   12.4288  -10.5465 H   0  0  0  0  0  0  0  0  0  0  0  0
  -11.2534   14.0978  -11.4395 H   0  0  0  0  0  0  0  0  0  0  0  0
  -10.4734   11.8138   -8.4015 H   0  0  0  0  0  0  0  0  0  0  0  0
   -8.7024   12.6188   -8.2225 H   0  0  0  0  0  0  0  0  0  0  0  0
  -12.2994   14.1048   -6.8715 H   0  0  0  0  0  0  0  0  0  0  0  0
  -13.2664   14.5438   -8.5175 H   0  0  0  0  0  0  0  0  0  0  0  0
  -12.4004   12.7938   -8.3225 H   0  0  0  0  0  0  0  0  0  0  0  0
  1  2  1  0  0  0  0
  1 47  1  0  0  0  0
  1 48  1  0  0  0  0
  1 49  1  0  0  0  0
  2  3  1  0  0  0  0
  2  7  1  0  0  0  0
  2 50  1  1  0  0  0
  3  4  1  0  0  0  0
  3 51  1  0  0  0  0
  3 52  1  0  0  0  0
  4  5  1  0  0  0  0
  4 53  1  0  0  0  0
  4 54  1  0  0  0  0
  5  6  1  0  0  0  0
  5  8  1  0  0  0  0
  5 55  1  6  0  0  0
  6  7  1  0  0  0  0
  6 56  1  0  0  0  0
  6 57  1  0  0  0  0
  7 58  1  0  0  0  0
  7 59  1  0  0  0  0
  8  9  1  0  0  0  0
  8 60  1  0  0  0  0
  8 61  1  0  0  0  0
  9 10  1  0  0  0  0
  9 62  1  0  0  0  0
  9 63  1  0  0  0  0
 10 11  1  0  0  0  0
 11 12  2  0  0  0  0
 11 16  1  0  0  0  0
 12 13  1  0  0  0  0
 12 64  1  0  0  0  0
 13 14  2  0  0  0  0
 13 21  1  0  0  0  0
 14 15  1  0  0  0  0
 14 65  1  0  0  0  0
 15 16  2  0  0  0  0
 15 66  1  0  0  0  0
 16 17  1  0  0  0  0
 17 18  1  0  0  0  0
 17 19  1  0  0  0  0
 17 20  1  0  0  0  0
 21 22  1  0  0  0  0
 21 25  2  0  0  0  0
 22 23  2  0  0  0  0
 22 41  1  0  0  0  0
 23 24  1  0  0  0  0
 23 38  1  0  0  0  0
 24 25  1  0  0  0  0
 24 26  1  0  0  0  0
 26 27  1  0  0  0  0
 26 67  1  0  0  0  0
 26 68  1  0  0  0  0
 27 28  1  0  0  0  0
 27 37  1  0  0  0  0
 27 46  1  1  0  0  0
 28 29  1  0  0  0  0
 28 69  1  0  0  0  0
 28 70  1  0  0  0  0
 29 30  1  0  0  0  0
 29 34  1  0  0  0  0
 29 71  1  1  0  0  0
 30 31  1  0  0  0  0
 30 72  1  0  0  0  0
 30 73  1  0  0  0  0
 31 32  1  0  0  0  0
 31 74  1  0  0  0  0
 31 75  1  0  0  0  0
 32 33  1  0  0  0  0
 32 35  1  6  0  0  0
 32 36  1  0  0  0  0
 33 34  1  0  0  0  0
 33 76  1  0  0  0  0
 33 77  1  0  0  0  0
 34 78  1  0  0  0  0
 34 79  1  0  0  0  0
 35 80  1  0  0  0  0
 35 81  1  0  0  0  0
 35 82  1  0  0  0  0
 36 83  1  0  0  0  0
 37 84  1  0  0  0  0
 38 39  1  0  0  0  0
 38 85  1  0  0  0  0
 38 86  1  0  0  0  0
 39 40  1  0  0  0  0
 39 87  1  0  0  0  0
 39 88  1  0  0  0  0
 40 41  1  0  0  0  0
 40 42  1  0  0  0  0
 41 89  1  0  0  0  0
 41 90  1  0  0  0  0
 42 43  2  0  0  0  0
 42 44  2  0  0  0  0
 42 45  1  0  0  0  0
 45 91  1  0  0  0  0
 45 92  1  0  0  0  0
 45 93  1  0  0  0  0
M  CHG  2   5   1  29   1
M  END
