BACE_9:1_D
 OpenBabel10051815513D

 88 90  0  0  1  0  0  0  0  0999 V2000
   19.5671   39.7259   -9.6647 C   0  0  0  0  0  0  0  0  0  0  0  0
   19.2262   39.9569   -8.1783 C   0  0  2  0  0  0  0  0  0  0  0  0
   20.4171   39.5173   -7.2887 C   0  0  0  0  0  0  0  0  0  0  0  0
   21.4756   40.6232   -7.0602 C   0  0  0  0  0  0  0  0  0  0  0  0
   20.9181   41.8295   -6.2633 C   0  0  0  0  0  0  0  0  0  0  0  0
   21.9361   42.4356   -5.2709 C   0  0  0  0  0  0  0  0  0  0  0  0
   22.8539   43.4892   -5.9351 C   0  0  0  0  0  0  0  0  0  0  0  0
   22.4422   44.9513   -5.6345 C   0  0  0  0  0  0  0  0  0  0  0  0
   21.2926   45.4797   -6.5182 C   0  0  0  0  0  0  0  0  0  0  0  0
   19.9460   44.9915   -6.1776 N   0  0  0  0  0  0  0  0  0  0  0  0
   18.9734   44.9303   -7.1809 C   0  0  0  0  0  0  0  0  0  0  0  0
   18.7605   46.0002   -8.0353 C   0  0  0  0  0  0  0  0  0  0  0  0
   17.8237   45.9087   -9.0392 C   0  0  0  0  0  0  0  0  0  0  0  0
   17.1052   44.7466   -9.2015 C   0  0  0  0  0  0  0  0  0  0  0  0
   17.3006   43.6586   -8.3614 C   0  0  0  0  0  0  0  0  0  0  0  0
   18.2294   43.7796   -7.3413 C   0  0  0  0  0  0  0  0  0  0  0  0
   16.5835   42.3776   -8.5982 C   0  0  0  0  0  0  0  0  0  0  0  0
   15.9395   42.2871   -9.6419 O   0  0  0  0  0  0  0  0  0  0  0  0
   16.7234   41.3607   -7.7203 N   0  0  0  0  0  0  0  0  0  0  0  0
   16.6373   39.9720   -8.1926 C   0  0  1  0  0  0  0  0  0  0  0  0
   17.9241   39.2070   -7.7898 C   0  0  0  0  0  0  0  0  0  0  0  0
   15.2997   39.3122   -7.7752 C   0  0  1  0  0  0  0  0  0  0  0  0
   14.0832   39.6021   -8.6834 C   0  0  0  0  0  0  0  0  0  0  0  0
   13.1578   40.6117   -8.0588 N   0  3  0  0  0  0  0  0  0  0  0  0
   11.6907   40.3441   -8.2580 C   0  0  0  0  0  0  0  0  0  0  0  0
   11.3904   39.9928   -9.7079 C   0  0  0  0  0  0  0  0  0  0  0  0
   11.2537   40.9938  -10.6441 C   0  0  0  0  0  0  0  0  0  0  0  0
   10.9930   40.6814  -11.9580 C   0  0  0  0  0  0  0  0  0  0  0  0
   10.8634   39.3658  -12.3383 C   0  0  0  0  0  0  0  0  0  0  0  0
   10.9911   38.3545  -11.4091 C   0  0  0  0  0  0  0  0  0  0  0  0
   11.2569   38.6778  -10.0959 C   0  0  0  0  0  0  0  0  0  0  0  0
   10.8510   36.8888  -11.7991 C   0  0  0  0  0  0  0  0  0  0  0  0
    9.9333   36.1069  -10.8438 C   0  0  0  0  0  0  0  0  0  0  0  0
   12.1954   36.1471  -11.9059 C   0  0  0  0  0  0  0  0  0  0  0  0
   15.4966   37.8917   -7.7164 O   0  0  0  0  0  0  0  0  0  0  0  0
   17.6000   47.0732   -9.9863 C   0  0  0  0  0  0  0  0  0  0  0  0
   16.7097   48.0380   -9.4009 O   0  0  0  0  0  0  0  0  0  0  0  0
   17.4259   49.0856   -8.7278 C   0  0  0  0  0  0  0  0  0  0  0  0
   19.0661   40.9327   -8.0297 H   0  0  0  0  0  0  0  0  0  0  0  0
   16.6079   39.9421   -9.1918 H   0  0  0  0  0  0  0  0  0  0  0  0
   15.0684   39.7193   -6.8916 H   0  0  0  0  0  0  0  0  0  0  0  0
   19.2319   38.8247   -9.9393 H   0  0  0  0  0  0  0  0  0  0  0  0
   19.1329   40.4317  -10.2245 H   0  0  0  0  0  0  0  0  0  0  0  0
   20.5577   39.7716   -9.7939 H   0  0  0  0  0  0  0  0  0  0  0  0
   20.8644   38.7359   -7.7237 H   0  0  0  0  0  0  0  0  0  0  0  0
   20.0389   39.2916   -6.3910 H   0  0  0  0  0  0  0  0  0  0  0  0
   21.7997   40.9463   -7.9494 H   0  0  0  0  0  0  0  0  0  0  0  0
   22.2176   40.2241   -6.5216 H   0  0  0  0  0  0  0  0  0  0  0  0
   20.1139   41.5280   -5.7512 H   0  0  0  0  0  0  0  0  0  0  0  0
   20.6957   42.5433   -6.9275 H   0  0  0  0  0  0  0  0  0  0  0  0
   22.5033   41.6996   -4.9013 H   0  0  0  0  0  0  0  0  0  0  0  0
   21.4198   42.8957   -4.5486 H   0  0  0  0  0  0  0  0  0  0  0  0
   22.8320   43.3497   -6.9252 H   0  0  0  0  0  0  0  0  0  0  0  0
   23.7695   43.3606   -5.5543 H   0  0  0  0  0  0  0  0  0  0  0  0
   23.2407   45.5377   -5.7707 H   0  0  0  0  0  0  0  0  0  0  0  0
   22.1088   44.9675   -4.6918 H   0  0  0  0  0  0  0  0  0  0  0  0
   21.4861   45.2188   -7.4640 H   0  0  0  0  0  0  0  0  0  0  0  0
   21.2675   46.4681   -6.3682 H   0  0  0  0  0  0  0  0  0  0  0  0
   19.8848   44.4101   -5.5197 H   0  0  0  0  0  0  0  0  0  0  0  0
   19.2892   46.8414   -7.9221 H   0  0  0  0  0  0  0  0  0  0  0  0
   16.4306   44.6846   -9.9372 H   0  0  0  0  0  0  0  0  0  0  0  0
   18.3634   43.0174   -6.7080 H   0  0  0  0  0  0  0  0  0  0  0  0
   16.9363   41.5176   -6.8814 H   0  0  0  0  0  0  0  0  0  0  0  0
   17.9182   39.0690   -6.7994 H   0  0  0  0  0  0  0  0  0  0  0  0
   17.9209   38.3391   -8.2867 H   0  0  0  0  0  0  0  0  0  0  0  0
   13.5820   38.7509   -8.8395 H   0  0  0  0  0  0  0  0  0  0  0  0
   14.4188   39.9777   -9.5473 H   0  0  0  0  0  0  0  0  0  0  0  0
   13.3574   41.4433   -8.3638 H   0  0  0  0  0  0  0  0  0  0  0  0
   13.3214   40.6611   -7.1644 H   0  0  0  0  0  0  0  0  0  0  0  0
   11.1707   41.1590   -8.0022 H   0  0  0  0  0  0  0  0  0  0  0  0
   11.4284   39.5687   -7.6835 H   0  0  0  0  0  0  0  0  0  0  0  0
   11.3444   41.9506  -10.3677 H   0  0  0  0  0  0  0  0  0  0  0  0
   10.8977   41.4101  -12.6362 H   0  0  0  0  0  0  0  0  0  0  0  0
   10.6754   39.1412  -13.2945 H   0  0  0  0  0  0  0  0  0  0  0  0
   11.3539   37.9497   -9.4174 H   0  0  0  0  0  0  0  0  0  0  0  0
   10.4357   36.9202  -12.7083 H   0  0  0  0  0  0  0  0  0  0  0  0
   10.4205   35.2987  -10.5130 H   0  0  0  0  0  0  0  0  0  0  0  0
    9.6784   36.6867  -10.0700 H   0  0  0  0  0  0  0  0  0  0  0  0
    9.1041   35.8268  -11.3275 H   0  0  0  0  0  0  0  0  0  0  0  0
   12.1628   35.3296  -11.3309 H   0  0  0  0  0  0  0  0  0  0  0  0
   12.3617   35.8841  -12.8562 H   0  0  0  0  0  0  0  0  0  0  0  0
   12.9355   36.7460  -11.5997 H   0  0  0  0  0  0  0  0  0  0  0  0
   14.9934   37.4837   -6.9469 H   0  0  0  0  0  0  0  0  0  0  0  0
   17.2050   46.7333  -10.8398 H   0  0  0  0  0  0  0  0  0  0  0  0
   18.4787   47.5152  -10.1665 H   0  0  0  0  0  0  0  0  0  0  0  0
   18.4076   48.9155   -8.8126 H   0  0  0  0  0  0  0  0  0  0  0  0
   17.2002   49.9682   -9.1402 H   0  0  0  0  0  0  0  0  0  0  0  0
   17.1684   49.1025   -7.7616 H   0  0  0  0  0  0  0  0  0  0  0  0
  1  2  1  0  0  0  0
  1 42  1  0  0  0  0
  1 43  1  0  0  0  0
  1 44  1  0  0  0  0
  2  3  1  0  0  0  0
  2 21  1  0  0  0  0
  2 39  1  1  0  0  0
  3  4  1  0  0  0  0
  3 45  1  0  0  0  0
  3 46  1  0  0  0  0
  4  5  1  0  0  0  0
  4 47  1  0  0  0  0
  4 48  1  0  0  0  0
  5  6  1  0  0  0  0
  5 49  1  0  0  0  0
  5 50  1  0  0  0  0
  6  7  1  0  0  0  0
  6 51  1  0  0  0  0
  6 52  1  0  0  0  0
  7  8  1  0  0  0  0
  7 53  1  0  0  0  0
  7 54  1  0  0  0  0
  8  9  1  0  0  0  0
  8 55  1  0  0  0  0
  8 56  1  0  0  0  0
  9 10  1  0  0  0  0
  9 57  1  0  0  0  0
  9 58  1  0  0  0  0
 10 11  1  0  0  0  0
 10 59  1  0  0  0  0
 11 12  2  0  0  0  0
 11 16  1  0  0  0  0
 12 13  1  0  0  0  0
 12 60  1  0  0  0  0
 13 14  2  0  0  0  0
 13 36  1  0  0  0  0
 14 15  1  0  0  0  0
 14 61  1  0  0  0  0
 15 16  2  0  0  0  0
 15 17  1  0  0  0  0
 16 62  1  0  0  0  0
 17 18  2  0  0  0  0
 17 19  1  0  0  0  0
 19 20  1  0  0  0  0
 19 63  1  0  0  0  0
 20 21  1  0  0  0  0
 20 22  1  0  0  0  0
 20 40  1  6  0  0  0
 21 64  1  0  0  0  0
 21 65  1  0  0  0  0
 22 23  1  0  0  0  0
 22 35  1  0  0  0  0
 22 41  1  1  0  0  0
 23 24  1  0  0  0  0
 23 66  1  0  0  0  0
 23 67  1  0  0  0  0
 24 25  1  0  0  0  0
 24 68  1  0  0  0  0
 24 69  1  0  0  0  0
 25 26  1  0  0  0  0
 25 70  1  0  0  0  0
 25 71  1  0  0  0  0
 26 27  2  0  0  0  0
 26 31  1  0  0  0  0
 27 28  1  0  0  0  0
 27 72  1  0  0  0  0
 28 29  2  0  0  0  0
 28 73  1  0  0  0  0
 29 30  1  0  0  0  0
 29 74  1  0  0  0  0
 30 31  2  0  0  0  0
 30 32  1  0  0  0  0
 31 75  1  0  0  0  0
 32 33  1  0  0  0  0
 32 34  1  0  0  0  0
 32 76  1  0  0  0  0
 33 77  1  0  0  0  0
 33 78  1  0  0  0  0
 33 79  1  0  0  0  0
 34 80  1  0  0  0  0
 34 81  1  0  0  0  0
 34 82  1  0  0  0  0
 35 83  1  0  0  0  0
 36 37  1  0  0  0  0
 36 84  1  0  0  0  0
 36 85  1  0  0  0  0
 37 38  1  0  0  0  0
 38 86  1  0  0  0  0
 38 87  1  0  0  0  0
 38 88  1  0  0  0  0
M  CHG  1  24   1
M  END
