BACE_5:1_D
 OpenBabel10051815513D

 80 81  0  0  1  0  0  0  0  0999 V2000
   19.2432   38.8425   -8.2980 C   0  0  0  0  0  0  0  0  0  0  0  0
   18.9722   40.1241   -9.1037 C   0  0  0  0  0  0  0  0  0  0  0  0
   17.8703   40.9735   -8.4399 C   0  0  0  0  0  0  0  0  0  0  0  0
   16.4318   40.6364   -8.7981 C   0  0  0  0  0  0  0  0  0  0  0  0
   15.7463   39.5428   -8.4465 C   0  0  0  0  0  0  0  0  0  0  0  0
   14.4868   39.7060   -9.0301 C   0  0  0  0  0  0  0  0  0  0  0  0
   14.4808   40.8431   -9.6772 N   0  0  0  0  0  0  0  0  0  0  0  0
   15.6797   41.4665   -9.5634 N   0  0  0  0  0  0  0  0  0  0  0  0
   13.2885   38.7793   -8.9707 C   0  0  0  0  0  0  0  0  0  0  0  0
   12.0381   39.5334   -8.6058 N   0  3  0  0  0  0  0  0  0  0  0  0
   11.0379   39.6598   -9.7246 C   0  0  0  0  0  0  0  0  0  0  0  0
   11.1023   38.4110  -10.6260 C   0  0  2  0  0  0  0  0  0  0  0  0
   10.7546   38.6441  -12.1222 C   0  0  2  0  0  0  0  0  0  0  0  0
   11.1227   37.4434  -13.0381 C   0  0  0  0  0  0  0  0  0  0  0  0
   10.1502   36.2284  -13.0654 C   0  0  1  0  0  0  0  0  0  0  0  0
    8.9839   36.4203  -14.0631 C   0  0  0  0  0  0  0  0  0  0  0  0
    7.7296   35.5941  -13.6624 C   0  0  0  0  0  0  0  0  0  0  0  0
    6.6466   35.4643  -14.7738 C   0  0  0  0  0  0  0  0  0  0  0  0
    5.2511   36.0433  -14.3937 C   0  0  0  0  0  0  0  0  0  0  0  0
    4.9921   37.5224  -14.7831 C   0  0  0  0  0  0  0  0  0  0  0  0
    6.2161   38.3509  -14.3859 C   0  0  0  0  0  0  0  0  0  0  0  0
    6.1788   39.7851  -14.4803 O   0  0  0  0  0  0  0  0  0  0  0  0
    7.5351   40.2547  -14.3838 C   0  0  0  0  0  0  0  0  0  0  0  0
    7.8361   41.6549  -13.9204 C   0  0  0  0  0  0  0  0  0  0  0  0
    6.9511   42.4908  -13.7997 O   0  0  0  0  0  0  0  0  0  0  0  0
    9.1422   41.8489  -13.6165 N   0  0  0  0  0  0  0  0  0  0  0  0
   10.2275   40.8900  -13.9794 C   0  0  2  0  0  0  0  0  0  0  0  0
   11.4462   40.8910  -13.0703 C   0  0  0  0  0  0  0  0  0  0  0  0
   12.1952   41.8577  -13.0383 O   0  0  0  0  0  0  0  0  0  0  0  0
   11.7019   39.7593  -12.3762 N   0  0  0  0  0  0  0  0  0  0  0  0
   10.7234   41.3147  -15.3777 C   0  0  0  0  0  0  0  0  0  0  0  0
    9.5207   43.0956  -12.9318 C   0  0  0  0  0  0  0  0  0  0  0  0
   10.9714   34.9864  -13.4686 C   0  0  0  0  0  0  0  0  0  0  0  0
   10.2936   37.3671  -10.0613 O   0  0  0  0  0  0  0  0  0  0  0  0
   12.0648   38.1401  -10.6435 H   0  0  0  0  0  0  0  0  0  0  0  0
    9.7826   38.7957  -12.3016 H   0  0  0  0  0  0  0  0  0  0  0  0
    9.7393   36.1270  -12.1593 H   0  0  0  0  0  0  0  0  0  0  0  0
    9.8324   39.9737  -13.9143 H   0  0  0  0  0  0  0  0  0  0  0  0
   18.5184   38.1798   -8.4868 H   0  0  0  0  0  0  0  0  0  0  0  0
   20.1279   38.4583   -8.5619 H   0  0  0  0  0  0  0  0  0  0  0  0
   19.2594   39.0560   -7.3212 H   0  0  0  0  0  0  0  0  0  0  0  0
   18.6840   39.8755  -10.0285 H   0  0  0  0  0  0  0  0  0  0  0  0
   19.8132   40.6641   -9.1341 H   0  0  0  0  0  0  0  0  0  0  0  0
   18.0308   41.9281   -8.6906 H   0  0  0  0  0  0  0  0  0  0  0  0
   17.9460   40.7794   -7.4618 H   0  0  0  0  0  0  0  0  0  0  0  0
   16.0651   38.7766   -7.8885 H   0  0  0  0  0  0  0  0  0  0  0  0
   15.9179   42.2391   -9.9109 H   0  0  0  0  0  0  0  0  0  0  0  0
   13.4563   38.0695   -8.2866 H   0  0  0  0  0  0  0  0  0  0  0  0
   13.1588   38.3698   -9.8738 H   0  0  0  0  0  0  0  0  0  0  0  0
   11.6393   39.1409   -7.8860 H   0  0  0  0  0  0  0  0  0  0  0  0
   12.2551   40.3577   -8.2897 H   0  0  0  0  0  0  0  0  0  0  0  0
   11.2446   40.4745  -10.2663 H   0  0  0  0  0  0  0  0  0  0  0  0
   10.1189   39.7397   -9.3383 H   0  0  0  0  0  0  0  0  0  0  0  0
   12.0174   37.1062  -12.7452 H   0  0  0  0  0  0  0  0  0  0  0  0
   11.0873   37.8141  -13.9662 H   0  0  0  0  0  0  0  0  0  0  0  0
    9.2851   36.1334  -14.9725 H   0  0  0  0  0  0  0  0  0  0  0  0
    8.7291   37.3873  -14.0563 H   0  0  0  0  0  0  0  0  0  0  0  0
    7.3103   36.0302  -12.8662 H   0  0  0  0  0  0  0  0  0  0  0  0
    8.0529   34.6659  -13.4785 H   0  0  0  0  0  0  0  0  0  0  0  0
    6.5356   34.4944  -14.9906 H   0  0  0  0  0  0  0  0  0  0  0  0
    6.9728   36.0038  -15.5500 H   0  0  0  0  0  0  0  0  0  0  0  0
    5.1464   35.9638  -13.4024 H   0  0  0  0  0  0  0  0  0  0  0  0
    4.5889   35.5103  -14.9204 H   0  0  0  0  0  0  0  0  0  0  0  0
    4.1822   37.8618  -14.3049 H   0  0  0  0  0  0  0  0  0  0  0  0
    4.8360   37.5948  -15.7681 H   0  0  0  0  0  0  0  0  0  0  0  0
    6.9737   38.0417  -14.9608 H   0  0  0  0  0  0  0  0  0  0  0  0
    6.2906   38.1902  -13.4017 H   0  0  0  0  0  0  0  0  0  0  0  0
    7.9359   40.1613  -15.2952 H   0  0  0  0  0  0  0  0  0  0  0  0
    7.9113   39.6936  -13.6464 H   0  0  0  0  0  0  0  0  0  0  0  0
   12.5020   39.7022  -12.0128 H   0  0  0  0  0  0  0  0  0  0  0  0
   11.7085   41.4820  -15.3370 H   0  0  0  0  0  0  0  0  0  0  0  0
   10.5321   40.5891  -16.0388 H   0  0  0  0  0  0  0  0  0  0  0  0
   10.2508   42.1483  -15.6637 H   0  0  0  0  0  0  0  0  0  0  0  0
   10.5127   43.1100  -12.8064 H   0  0  0  0  0  0  0  0  0  0  0  0
    9.2393   43.8820  -13.4818 H   0  0  0  0  0  0  0  0  0  0  0  0
    9.0670   43.1420  -12.0418 H   0  0  0  0  0  0  0  0  0  0  0  0
   10.5663   34.5799  -14.2876 H   0  0  0  0  0  0  0  0  0  0  0  0
   11.9166   35.2528  -13.6572 H   0  0  0  0  0  0  0  0  0  0  0  0
   10.9636   34.3208  -12.7222 H   0  0  0  0  0  0  0  0  0  0  0  0
   10.6814   37.0314   -9.1960 H   0  0  0  0  0  0  0  0  0  0  0  0
  1  2  1  0  0  0  0
  1 39  1  0  0  0  0
  1 40  1  0  0  0  0
  1 41  1  0  0  0  0
  2  3  1  0  0  0  0
  2 42  1  0  0  0  0
  2 43  1  0  0  0  0
  3  4  1  0  0  0  0
  3 44  1  0  0  0  0
  3 45  1  0  0  0  0
  4  5  2  0  0  0  0
  4  8  1  0  0  0  0
  5  6  1  0  0  0  0
  5 46  1  0  0  0  0
  6  7  2  0  0  0  0
  6  9  1  0  0  0  0
  7  8  1  0  0  0  0
  8 47  1  0  0  0  0
  9 10  1  0  0  0  0
  9 48  1  0  0  0  0
  9 49  1  0  0  0  0
 10 11  1  0  0  0  0
 10 50  1  0  0  0  0
 10 51  1  0  0  0  0
 11 12  1  0  0  0  0
 11 52  1  0  0  0  0
 11 53  1  0  0  0  0
 12 13  1  0  0  0  0
 12 34  1  0  0  0  0
 12 35  1  1  0  0  0
 13 14  1  0  0  0  0
 13 30  1  0  0  0  0
 13 36  1  6  0  0  0
 14 15  1  0  0  0  0
 14 54  1  0  0  0  0
 14 55  1  0  0  0  0
 15 16  1  0  0  0  0
 15 33  1  0  0  0  0
 15 37  1  1  0  0  0
 16 17  1  0  0  0  0
 16 56  1  0  0  0  0
 16 57  1  0  0  0  0
 17 18  1  0  0  0  0
 17 58  1  0  0  0  0
 17 59  1  0  0  0  0
 18 19  1  0  0  0  0
 18 60  1  0  0  0  0
 18 61  1  0  0  0  0
 19 20  1  0  0  0  0
 19 62  1  0  0  0  0
 19 63  1  0  0  0  0
 20 21  1  0  0  0  0
 20 64  1  0  0  0  0
 20 65  1  0  0  0  0
 21 22  1  0  0  0  0
 21 66  1  0  0  0  0
 21 67  1  0  0  0  0
 22 23  1  0  0  0  0
 23 24  1  0  0  0  0
 23 68  1  0  0  0  0
 23 69  1  0  0  0  0
 24 25  2  0  0  0  0
 24 26  1  0  0  0  0
 26 27  1  0  0  0  0
 26 32  1  0  0  0  0
 27 28  1  0  0  0  0
 27 31  1  0  0  0  0
 27 38  1  6  0  0  0
 28 29  2  0  0  0  0
 28 30  1  0  0  0  0
 30 70  1  0  0  0  0
 31 71  1  0  0  0  0
 31 72  1  0  0  0  0
 31 73  1  0  0  0  0
 32 74  1  0  0  0  0
 32 75  1  0  0  0  0
 32 76  1  0  0  0  0
 33 77  1  0  0  0  0
 33 78  1  0  0  0  0
 33 79  1  0  0  0  0
 34 80  1  0  0  0  0
M  CHG  1  10   1
M  END
