BACE_16:1_D
 OpenBabel10051815513D

 85 88  0  0  1  0  0  0  0  0999 V2000
    9.4190   36.6048  -13.3718 C   0  0  0  0  0  0  0  0  0  0  0  0
   10.8736   37.0588  -13.6008 C   0  0  0  0  0  0  0  0  0  0  0  0
   11.8020   35.8786  -13.2585 C   0  0  0  0  0  0  0  0  0  0  0  0
   11.1826   38.3611  -12.8705 C   0  0  0  0  0  0  0  0  0  0  0  0
   11.2422   39.5714  -13.5282 C   0  0  0  0  0  0  0  0  0  0  0  0
   11.5402   40.7250  -12.8411 C   0  0  0  0  0  0  0  0  0  0  0  0
   11.7904   40.6786  -11.4894 C   0  0  0  0  0  0  0  0  0  0  0  0
   11.7444   39.4754  -10.8218 C   0  0  0  0  0  0  0  0  0  0  0  0
   11.4324   38.3253  -11.5144 C   0  0  0  0  0  0  0  0  0  0  0  0
   12.0591   39.4114   -9.3345 C   0  0  0  0  0  0  0  0  0  0  0  0
   12.9452   38.2568   -8.9535 N   0  3  0  0  0  0  0  0  0  0  0  0
   14.1812   38.6886   -8.2217 C   0  0  0  0  0  0  0  0  0  0  0  0
   14.7372   40.0258   -8.7608 C   0  0  2  0  0  0  0  0  0  0  0  0
   16.2686   40.1202   -8.5681 C   0  0  2  0  0  0  0  0  0  0  0  0
   16.8225   38.8905   -7.8081 C   0  0  0  0  0  0  0  0  0  0  0  0
   18.3425   38.8084   -7.7715 C   0  0  0  0  0  0  0  0  0  0  0  0
   19.0577   38.3567   -8.8596 C   0  0  0  0  0  0  0  0  0  0  0  0
   20.4342   38.3128   -8.8193 C   0  0  0  0  0  0  0  0  0  0  0  0
   21.1063   38.7260   -7.6925 C   0  0  0  0  0  0  0  0  0  0  0  0
   20.3980   39.1795   -6.5925 C   0  0  0  0  0  0  0  0  0  0  0  0
   19.0150   39.2037   -6.6394 C   0  0  0  0  0  0  0  0  0  0  0  0
   21.0168   39.5924   -5.4803 O   0  0  0  0  0  0  0  0  0  0  0  0
   21.9429   40.7018   -5.5810 C   0  0  0  0  0  0  0  0  0  0  0  0
   21.2331   42.0084   -5.9971 C   0  0  0  0  0  0  0  0  0  0  0  0
   22.0050   43.2700   -5.5571 C   0  0  0  0  0  0  0  0  0  0  0  0
   21.3568   44.5552   -6.1170 C   0  0  0  0  0  0  0  0  0  0  0  0
   19.9519   44.6773   -5.7885 O   0  0  0  0  0  0  0  0  0  0  0  0
   19.1010   44.7568   -6.8176 C   0  0  0  0  0  0  0  0  0  0  0  0
   18.3319   43.6634   -7.1630 C   0  0  0  0  0  0  0  0  0  0  0  0
   17.4841   43.7057   -8.2604 C   0  0  0  0  0  0  0  0  0  0  0  0
   17.4026   44.8883   -8.9793 C   0  0  0  0  0  0  0  0  0  0  0  0
   18.1440   46.0013   -8.6403 C   0  0  0  0  0  0  0  0  0  0  0  0
   19.0025   45.9223   -7.5556 C   0  0  0  0  0  0  0  0  0  0  0  0
   18.0247   47.1005   -9.4008 O   0  0  0  0  0  0  0  0  0  0  0  0
   17.0301   48.0964   -9.0714 C   0  0  0  0  0  0  0  0  0  0  0  0
   17.4300   48.8778   -7.8422 C   0  0  0  0  0  0  0  0  0  0  0  0
   17.0551   48.5861   -6.7301 O   0  0  0  0  0  0  0  0  0  0  0  0
   18.3317   50.0619   -8.0771 C   0  0  0  0  0  0  0  0  0  0  0  0
   16.7108   42.5188   -8.7170 C   0  0  0  0  0  0  0  0  0  0  0  0
   16.1920   42.6049   -9.8281 O   0  0  0  0  0  0  0  0  0  0  0  0
   16.6524   41.4045   -7.9565 N   0  0  0  0  0  0  0  0  0  0  0  0
   14.0575   41.1538   -8.1859 O   0  0  0  0  0  0  0  0  0  0  0  0
   14.5597   40.0477   -9.7446 H   0  0  0  0  0  0  0  0  0  0  0  0
   16.6983   40.1014   -9.4709 H   0  0  0  0  0  0  0  0  0  0  0  0
    9.4192   35.6519  -13.0685 H   0  0  0  0  0  0  0  0  0  0  0  0
    8.9914   37.1800  -12.6744 H   0  0  0  0  0  0  0  0  0  0  0  0
    8.9022   36.6879  -14.2239 H   0  0  0  0  0  0  0  0  0  0  0  0
   11.0300   37.2923  -14.5605 H   0  0  0  0  0  0  0  0  0  0  0  0
   12.4784   36.1806  -12.5867 H   0  0  0  0  0  0  0  0  0  0  0  0
   11.2648   35.1248  -12.8801 H   0  0  0  0  0  0  0  0  0  0  0  0
   12.2659   35.5639  -14.0867 H   0  0  0  0  0  0  0  0  0  0  0  0
   11.0675   39.6108  -14.5120 H   0  0  0  0  0  0  0  0  0  0  0  0
   11.5751   41.5993  -13.3252 H   0  0  0  0  0  0  0  0  0  0  0  0
   12.0056   41.5187  -10.9916 H   0  0  0  0  0  0  0  0  0  0  0  0
   11.3864   37.4532  -11.0272 H   0  0  0  0  0  0  0  0  0  0  0  0
   11.1986   39.3317   -8.8314 H   0  0  0  0  0  0  0  0  0  0  0  0
   12.5563   40.2480   -9.1047 H   0  0  0  0  0  0  0  0  0  0  0  0
   12.4850   37.6629   -8.4401 H   0  0  0  0  0  0  0  0  0  0  0  0
   13.1844   37.7868   -9.6959 H   0  0  0  0  0  0  0  0  0  0  0  0
   14.8811   37.9814   -8.3223 H   0  0  0  0  0  0  0  0  0  0  0  0
   13.9397   38.8215   -7.2605 H   0  0  0  0  0  0  0  0  0  0  0  0
   16.4724   38.0642   -8.2494 H   0  0  0  0  0  0  0  0  0  0  0  0
   16.5191   38.9802   -6.8595 H   0  0  0  0  0  0  0  0  0  0  0  0
   18.5747   38.0592   -9.6831 H   0  0  0  0  0  0  0  0  0  0  0  0
   20.9460   37.9796   -9.6111 H   0  0  0  0  0  0  0  0  0  0  0  0
   22.1056   38.6990   -7.6678 H   0  0  0  0  0  0  0  0  0  0  0  0
   18.4989   39.5122   -5.8404 H   0  0  0  0  0  0  0  0  0  0  0  0
   22.6424   40.4804   -6.2606 H   0  0  0  0  0  0  0  0  0  0  0  0
   22.3521   40.8464   -4.6801 H   0  0  0  0  0  0  0  0  0  0  0  0
   20.3232   42.0260   -5.5828 H   0  0  0  0  0  0  0  0  0  0  0  0
   21.1817   42.0197   -6.9957 H   0  0  0  0  0  0  0  0  0  0  0  0
   22.9468   43.2079   -5.8872 H   0  0  0  0  0  0  0  0  0  0  0  0
   21.9823   43.3186   -4.5586 H   0  0  0  0  0  0  0  0  0  0  0  0
   21.4538   44.5537   -7.1123 H   0  0  0  0  0  0  0  0  0  0  0  0
   21.8268   45.3313   -5.6965 H   0  0  0  0  0  0  0  0  0  0  0  0
   18.3867   42.8291   -6.6144 H   0  0  0  0  0  0  0  0  0  0  0  0
   16.7883   44.9360   -9.7669 H   0  0  0  0  0  0  0  0  0  0  0  0
   19.5565   46.7158   -7.3040 H   0  0  0  0  0  0  0  0  0  0  0  0
   16.1550   47.6428   -8.9028 H   0  0  0  0  0  0  0  0  0  0  0  0
   16.9511   48.7323   -9.8390 H   0  0  0  0  0  0  0  0  0  0  0  0
   18.5268   50.5014   -7.2004 H   0  0  0  0  0  0  0  0  0  0  0  0
   19.1858   49.7576   -8.4988 H   0  0  0  0  0  0  0  0  0  0  0  0
   17.8807   50.7125   -8.6881 H   0  0  0  0  0  0  0  0  0  0  0  0
   16.8807   41.4295   -7.1079 H   0  0  0  0  0  0  0  0  0  0  0  0
   13.9295   41.0371   -7.1955 H   0  0  0  0  0  0  0  0  0  0  0  0
  1  2  1  0  0  0  0
  1 45  1  0  0  0  0
  1 46  1  0  0  0  0
  1 47  1  0  0  0  0
  2  3  1  0  0  0  0
  2  4  1  0  0  0  0
  2 48  1  0  0  0  0
  3 49  1  0  0  0  0
  3 50  1  0  0  0  0
  3 51  1  0  0  0  0
  4  5  2  0  0  0  0
  4  9  1  0  0  0  0
  5  6  1  0  0  0  0
  5 52  1  0  0  0  0
  6  7  2  0  0  0  0
  6 53  1  0  0  0  0
  7  8  1  0  0  0  0
  7 54  1  0  0  0  0
  8  9  2  0  0  0  0
  8 10  1  0  0  0  0
  9 55  1  0  0  0  0
 10 11  1  0  0  0  0
 10 56  1  0  0  0  0
 10 57  1  0  0  0  0
 11 12  1  0  0  0  0
 11 58  1  0  0  0  0
 11 59  1  0  0  0  0
 12 13  1  0  0  0  0
 12 60  1  0  0  0  0
 12 61  1  0  0  0  0
 13 14  1  0  0  0  0
 13 42  1  0  0  0  0
 13 43  1  6  0  0  0
 14 15  1  0  0  0  0
 14 41  1  0  0  0  0
 14 44  1  6  0  0  0
 15 16  1  0  0  0  0
 15 62  1  0  0  0  0
 15 63  1  0  0  0  0
 16 17  2  0  0  0  0
 16 21  1  0  0  0  0
 17 18  1  0  0  0  0
 17 64  1  0  0  0  0
 18 19  2  0  0  0  0
 18 65  1  0  0  0  0
 19 20  1  0  0  0  0
 19 66  1  0  0  0  0
 20 21  2  0  0  0  0
 20 22  1  0  0  0  0
 21 67  1  0  0  0  0
 22 23  1  0  0  0  0
 23 24  1  0  0  0  0
 23 68  1  0  0  0  0
 23 69  1  0  0  0  0
 24 25  1  0  0  0  0
 24 70  1  0  0  0  0
 24 71  1  0  0  0  0
 25 26  1  0  0  0  0
 25 72  1  0  0  0  0
 25 73  1  0  0  0  0
 26 27  1  0  0  0  0
 26 74  1  0  0  0  0
 26 75  1  0  0  0  0
 27 28  1  0  0  0  0
 28 29  2  0  0  0  0
 28 33  1  0  0  0  0
 29 30  1  0  0  0  0
 29 76  1  0  0  0  0
 30 31  2  0  0  0  0
 30 39  1  0  0  0  0
 31 32  1  0  0  0  0
 31 77  1  0  0  0  0
 32 33  2  0  0  0  0
 32 34  1  0  0  0  0
 33 78  1  0  0  0  0
 34 35  1  0  0  0  0
 35 36  1  0  0  0  0
 35 79  1  0  0  0  0
 35 80  1  0  0  0  0
 36 37  2  0  0  0  0
 36 38  1  0  0  0  0
 38 81  1  0  0  0  0
 38 82  1  0  0  0  0
 38 83  1  0  0  0  0
 39 40  2  0  0  0  0
 39 41  1  0  0  0  0
 41 84  1  0  0  0  0
 42 85  1  0  0  0  0
M  CHG  1  11   1
M  END
