BACE_12:1_D
 OpenBabel10051815513D

 79 82  0  0  1  0  0  0  0  0999 V2000
   12.4897   35.9630  -11.6238 C   0  0  0  0  0  0  0  0  0  0  0  0
   11.2259   36.6683  -12.1485 C   0  0  0  0  0  0  0  0  0  0  0  0
   11.0545   36.3187  -13.6373 C   0  0  0  0  0  0  0  0  0  0  0  0
   11.1905   38.1715  -11.8996 C   0  0  0  0  0  0  0  0  0  0  0  0
   11.2558   39.0846  -12.9313 C   0  0  0  0  0  0  0  0  0  0  0  0
   11.2080   40.4347  -12.6710 C   0  0  0  0  0  0  0  0  0  0  0  0
   11.0896   40.8812  -11.3753 C   0  0  0  0  0  0  0  0  0  0  0  0
   11.0230   39.9804  -10.3363 C   0  0  0  0  0  0  0  0  0  0  0  0
   11.0782   38.6305  -10.6049 C   0  0  0  0  0  0  0  0  0  0  0  0
   10.8995   40.4869   -8.9069 C   0  0  0  0  0  0  0  0  0  0  0  0
   12.0767   40.1363   -8.0288 N   0  3  0  0  0  0  0  0  0  0  0  0
   13.4010   40.0088   -8.7373 C   0  0  0  0  0  0  0  0  0  0  0  0
   14.2100   41.3248   -8.8179 C   0  0  2  0  0  0  0  0  0  0  0  0
   15.7394   41.2070   -8.6070 C   0  0  2  0  0  0  0  0  0  0  0  0
   16.1608   40.1789   -7.5252 C   0  0  0  0  0  0  0  0  0  0  0  0
   17.5876   39.6599   -7.6600 C   0  0  0  0  0  0  0  0  0  0  0  0
   17.8642   38.6079   -8.5051 C   0  0  0  0  0  0  0  0  0  0  0  0
   19.1538   38.1469   -8.6395 C   0  0  0  0  0  0  0  0  0  0  0  0
   20.1757   38.7404   -7.9343 C   0  0  0  0  0  0  0  0  0  0  0  0
   19.9146   39.7934   -7.0859 C   0  0  0  0  0  0  0  0  0  0  0  0
   18.6150   40.2381   -6.9477 C   0  0  0  0  0  0  0  0  0  0  0  0
   21.0594   40.4648   -6.3355 C   0  0  0  0  0  0  0  0  0  0  0  0
   21.1309   41.9569   -6.7038 C   0  0  0  0  0  0  0  0  0  0  0  0
   22.2716   42.7519   -6.0451 C   0  0  0  0  0  0  0  0  0  0  0  0
   21.8433   44.2090   -5.7448 C   0  0  0  0  0  0  0  0  0  0  0  0
   21.3292   45.1102   -6.8017 N   0  0  0  0  0  0  0  0  0  0  0  0
   19.9566   45.1883   -7.0254 C   0  0  0  0  0  0  0  0  0  0  0  0
   19.3344   44.2253   -7.7951 C   0  0  0  0  0  0  0  0  0  0  0  0
   17.9689   44.2076   -7.9248 C   0  0  0  0  0  0  0  0  0  0  0  0
   17.2681   45.2275   -7.3166 C   0  0  0  0  0  0  0  0  0  0  0  0
   17.9466   46.2062   -6.6065 C   0  0  0  0  0  0  0  0  0  0  0  0
   19.2915   46.2106   -6.4392 N   0  0  0  0  0  0  0  0  0  0  0  0
   17.3136   47.2176   -6.0143 O   0  0  0  0  0  0  0  0  0  0  0  0
   17.3871   48.5316   -6.6038 C   0  0  0  0  0  0  0  0  0  0  0  0
   17.3261   43.0803   -8.6553 C   0  0  0  0  0  0  0  0  0  0  0  0
   17.8875   42.6804   -9.6721 O   0  0  0  0  0  0  0  0  0  0  0  0
   16.2172   42.5183   -8.1328 N   0  0  0  0  0  0  0  0  0  0  0  0
   13.6648   42.2730   -7.8891 O   0  0  0  0  0  0  0  0  0  0  0  0
   14.1140   41.6268   -9.7664 H   0  0  0  0  0  0  0  0  0  0  0  0
   16.1265   40.9079   -9.4792 H   0  0  0  0  0  0  0  0  0  0  0  0
   12.2324   35.0750  -11.2428 H   0  0  0  0  0  0  0  0  0  0  0  0
   13.1394   35.8327  -12.3728 H   0  0  0  0  0  0  0  0  0  0  0  0
   12.9182   36.5233  -10.9150 H   0  0  0  0  0  0  0  0  0  0  0  0
   10.4470   36.3268  -11.6226 H   0  0  0  0  0  0  0  0  0  0  0  0
   10.9513   37.1646  -14.1606 H   0  0  0  0  0  0  0  0  0  0  0  0
   11.8572   35.8181  -13.9614 H   0  0  0  0  0  0  0  0  0  0  0  0
   10.2435   35.7462  -13.7575 H   0  0  0  0  0  0  0  0  0  0  0  0
   11.3385   38.7632  -13.8746 H   0  0  0  0  0  0  0  0  0  0  0  0
   11.2593   41.0913  -13.4235 H   0  0  0  0  0  0  0  0  0  0  0  0
   11.0518   41.8627  -11.1875 H   0  0  0  0  0  0  0  0  0  0  0  0
   11.0363   37.9751   -9.8507 H   0  0  0  0  0  0  0  0  0  0  0  0
   10.0739   40.0936   -8.5024 H   0  0  0  0  0  0  0  0  0  0  0  0
   10.8629   41.4851   -8.9554 H   0  0  0  0  0  0  0  0  0  0  0  0
   12.1535   40.7818   -7.3938 H   0  0  0  0  0  0  0  0  0  0  0  0
   11.9027   39.3817   -7.5498 H   0  0  0  0  0  0  0  0  0  0  0  0
   13.2298   39.6862   -9.6682 H   0  0  0  0  0  0  0  0  0  0  0  0
   13.9514   39.3687   -8.2012 H   0  0  0  0  0  0  0  0  0  0  0  0
   15.5371   39.3989   -7.5753 H   0  0  0  0  0  0  0  0  0  0  0  0
   16.1183   40.6586   -6.6487 H   0  0  0  0  0  0  0  0  0  0  0  0
   17.1249   38.1774   -9.0231 H   0  0  0  0  0  0  0  0  0  0  0  0
   19.3487   37.3796   -9.2504 H   0  0  0  0  0  0  0  0  0  0  0  0
   21.1122   38.4055   -8.0383 H   0  0  0  0  0  0  0  0  0  0  0  0
   18.4165   40.9916   -6.3208 H   0  0  0  0  0  0  0  0  0  0  0  0
   21.9216   40.0201   -6.5781 H   0  0  0  0  0  0  0  0  0  0  0  0
   20.9001   40.3793   -5.3519 H   0  0  0  0  0  0  0  0  0  0  0  0
   20.2648   42.3818   -6.4403 H   0  0  0  0  0  0  0  0  0  0  0  0
   21.3115   41.9868   -7.6869 H   0  0  0  0  0  0  0  0  0  0  0  0
   23.0606   42.7619   -6.6596 H   0  0  0  0  0  0  0  0  0  0  0  0
   22.5054   42.3088   -5.1797 H   0  0  0  0  0  0  0  0  0  0  0  0
   22.6440   44.6621   -5.3527 H   0  0  0  0  0  0  0  0  0  0  0  0
   21.0337   44.0756   -5.1733 H   0  0  0  0  0  0  0  0  0  0  0  0
   21.8147   45.8146   -7.0119 H   0  0  0  0  0  0  0  0  0  0  0  0
   19.8850   43.5338   -8.2628 H   0  0  0  0  0  0  0  0  0  0  0  0
   16.2712   45.2613   -7.3875 H   0  0  0  0  0  0  0  0  0  0  0  0
   17.9446   48.4859   -7.4328 H   0  0  0  0  0  0  0  0  0  0  0  0
   16.4677   48.8508   -6.8335 H   0  0  0  0  0  0  0  0  0  0  0  0
   17.8002   49.1696   -5.9539 H   0  0  0  0  0  0  0  0  0  0  0  0
   15.8078   42.9067   -7.4560 H   0  0  0  0  0  0  0  0  0  0  0  0
   13.6815   41.9157   -6.9489 H   0  0  0  0  0  0  0  0  0  0  0  0
  1  2  1  0  0  0  0
  1 41  1  0  0  0  0
  1 42  1  0  0  0  0
  1 43  1  0  0  0  0
  2  3  1  0  0  0  0
  2  4  1  0  0  0  0
  2 44  1  0  0  0  0
  3 45  1  0  0  0  0
  3 46  1  0  0  0  0
  3 47  1  0  0  0  0
  4  5  2  0  0  0  0
  4  9  1  0  0  0  0
  5  6  1  0  0  0  0
  5 48  1  0  0  0  0
  6  7  2  0  0  0  0
  6 49  1  0  0  0  0
  7  8  1  0  0  0  0
  7 50  1  0  0  0  0
  8  9  2  0  0  0  0
  8 10  1  0  0  0  0
  9 51  1  0  0  0  0
 10 11  1  0  0  0  0
 10 52  1  0  0  0  0
 10 53  1  0  0  0  0
 11 12  1  0  0  0  0
 11 54  1  0  0  0  0
 11 55  1  0  0  0  0
 12 13  1  0  0  0  0
 12 56  1  0  0  0  0
 12 57  1  0  0  0  0
 13 14  1  0  0  0  0
 13 38  1  0  0  0  0
 13 39  1  6  0  0  0
 14 15  1  0  0  0  0
 14 37  1  0  0  0  0
 14 40  1  6  0  0  0
 15 16  1  0  0  0  0
 15 58  1  0  0  0  0
 15 59  1  0  0  0  0
 16 17  2  0  0  0  0
 16 21  1  0  0  0  0
 17 18  1  0  0  0  0
 17 60  1  0  0  0  0
 18 19  2  0  0  0  0
 18 61  1  0  0  0  0
 19 20  1  0  0  0  0
 19 62  1  0  0  0  0
 20 21  2  0  0  0  0
 20 22  1  0  0  0  0
 21 63  1  0  0  0  0
 22 23  1  0  0  0  0
 22 64  1  0  0  0  0
 22 65  1  0  0  0  0
 23 24  1  0  0  0  0
 23 66  1  0  0  0  0
 23 67  1  0  0  0  0
 24 25  1  0  0  0  0
 24 68  1  0  0  0  0
 24 69  1  0  0  0  0
 25 26  1  0  0  0  0
 25 70  1  0  0  0  0
 25 71  1  0  0  0  0
 26 27  1  0  0  0  0
 26 72  1  0  0  0  0
 27 28  2  0  0  0  0
 27 32  1  0  0  0  0
 28 29  1  0  0  0  0
 28 73  1  0  0  0  0
 29 30  2  0  0  0  0
 29 35  1  0  0  0  0
 30 31  1  0  0  0  0
 30 74  1  0  0  0  0
 31 32  2  0  0  0  0
 31 33  1  0  0  0  0
 33 34  1  0  0  0  0
 34 75  1  0  0  0  0
 34 76  1  0  0  0  0
 34 77  1  0  0  0  0
 35 36  2  0  0  0  0
 35 37  1  0  0  0  0
 37 78  1  0  0  0  0
 38 79  1  0  0  0  0
M  CHG  1  11   1
M  END
