2HHN-CatS_177.pdb
 OpenBabel12031817073D

 92 96  0  0  1  0  0  0  0  0999 V2000
    1.0720   15.6610   -5.6860 C   0  0  0  0  0  0  0  0  0  0  0  0
   -0.3020   16.3520   -5.7660 C   0  0  0  0  0  0  0  0  0  0  0  0
   -1.3280   15.6040   -4.9330 C   0  0  0  0  0  0  0  0  0  0  0  0
   -1.5490   14.2120   -5.5070 C   0  0  0  0  0  0  0  0  0  0  0  0
   -2.0070   14.2690   -6.8990 N   0  3  0  0  0  0  0  0  0  0  0  0
   -1.0130   14.9750   -7.7350 C   0  0  0  0  0  0  0  0  0  0  0  0
   -0.7390   16.3880   -7.2250 C   0  0  0  0  0  0  0  0  0  0  0  0
   -2.4620   12.9130   -7.3760 C   0  0  0  0  0  0  0  0  0  0  0  0
   -2.9070   12.8770   -8.8560 C   0  0  1  0  0  0  0  0  0  0  0  0
   -3.2130   11.4250   -9.2730 C   0  0  0  0  0  0  0  0  0  0  0  0
   -4.3520   10.6870   -8.6980 N   0  0  0  0  0  0  0  0  0  0  0  0
   -5.6150   10.4460   -9.1510 C   0  0  0  0  0  0  0  0  0  0  0  0
   -6.3110    9.6400   -8.3470 C   0  0  0  0  0  0  0  0  0  0  0  0
   -5.3980    9.3280   -7.3150 C   0  0  0  0  0  0  0  0  0  0  0  0
   -4.2720    9.9670   -7.5550 N   0  0  0  0  0  0  0  0  0  0  0  0
   -5.5780    8.4500   -6.1740 C   0  0  0  0  0  0  0  0  0  0  0  0
   -4.5240    7.6840   -5.7160 C   0  0  0  0  0  0  0  0  0  0  0  0
   -4.6870    6.8390   -4.6440 C   0  0  0  0  0  0  0  0  0  0  0  0
   -5.8990    6.7290   -3.9930 C   0  0  0  0  0  0  0  0  0  0  0  0
   -6.9640    7.4890   -4.4620 C   0  0  0  0  0  0  0  0  0  0  0  0
   -6.8020    8.3420   -5.5320 C   0  0  0  0  0  0  0  0  0  0  0  0
   -8.6000    7.3400   -3.7240 S   0  0  0  0  0  0  0  0  0  0  0  0
   -9.2600    8.9420   -3.2040 C   0  0  0  0  0  0  0  0  0  0  0  0
   -8.0870    9.8720   -2.8420 C   0  0  0  0  0  0  0  0  0  0  0  0
   -8.4790   10.9970   -1.9210 N   0  3  0  0  0  0  0  0  0  0  0  0
   -7.6060   12.1700   -1.9640 C   0  0  0  0  0  0  0  0  0  0  0  0
   -7.9420   13.1450   -0.8430 C   0  0  0  0  0  0  0  0  0  0  0  0
   -9.3930   13.5900   -0.8930 C   0  0  0  0  0  0  0  0  0  0  0  0
  -10.2960   12.3700   -0.9940 C   0  0  0  0  0  0  0  0  0  0  0  0
   -9.8640   11.4290   -2.1140 C   0  0  0  0  0  0  0  0  0  0  0  0
   -9.6810   14.3210    0.2570 F   0  0  0  0  0  0  0  0  0  0  0  0
   -9.5970   14.4430   -1.9730 F   0  0  0  0  0  0  0  0  0  0  0  0
   -5.9700    5.7670   -2.8060 C   0  0  0  0  0  0  0  0  0  0  0  0
   -5.8530    6.4440   -1.5960 F   0  0  0  0  0  0  0  0  0  0  0  0
   -7.1530    5.0370   -2.7430 F   0  0  0  0  0  0  0  0  0  0  0  0
   -4.9340    4.8400   -2.8640 F   0  0  0  0  0  0  0  0  0  0  0  0
   -7.7580    9.2380   -8.6120 C   0  0  0  0  0  0  0  0  0  0  0  0
   -8.1810    9.4100  -10.0220 N   0  0  0  0  0  0  0  0  0  0  0  0
   -7.7500   10.7410  -10.4980 C   0  0  0  0  0  0  0  0  0  0  0  0
   -6.2250   10.9750  -10.4370 C   0  0  0  0  0  0  0  0  0  0  0  0
   -9.6890    8.9890  -10.5050 S   0  0  0  0  0  0  0  0  0  0  0  0
   -9.8560    7.6240  -10.1200 O   0  0  0  0  0  0  0  0  0  0  0  0
   -9.8140    9.2450  -11.9050 O   0  0  0  0  0  0  0  0  0  0  0  0
  -10.9370    9.9850   -9.6470 C   0  0  0  0  0  0  0  0  0  0  0  0
   -4.0540   13.7090   -9.0750 O   0  0  0  0  0  0  0  0  0  0  0  0
   -0.1220   17.7820   -5.2230 C   0  0  0  0  0  0  0  0  0  0  0  0
   -2.1590   13.2320   -9.4160 H   0  0  0  0  0  0  0  0  0  0  0  0
    1.7500   16.2310   -6.1500 H   0  0  0  0  0  0  0  0  0  0  0  0
    1.3330   15.5410   -4.7280 H   0  0  0  0  0  0  0  0  0  0  0  0
    1.0250   14.7650   -6.1260 H   0  0  0  0  0  0  0  0  0  0  0  0
   -2.1890   16.1120   -4.9370 H   0  0  0  0  0  0  0  0  0  0  0  0
   -0.9800   15.5180   -4.0000 H   0  0  0  0  0  0  0  0  0  0  0  0
   -2.2370   13.7340   -4.9610 H   0  0  0  0  0  0  0  0  0  0  0  0
   -0.6850   13.7090   -5.4820 H   0  0  0  0  0  0  0  0  0  0  0  0
   -2.7570   14.7830   -6.8760 H   0  0  0  0  0  0  0  0  0  0  0  0
   -1.3590   15.0250   -8.6720 H   0  0  0  0  0  0  0  0  0  0  0  0
   -0.1570   14.4610   -7.6870 H   0  0  0  0  0  0  0  0  0  0  0  0
   -1.5740   16.9300   -7.3160 H   0  0  0  0  0  0  0  0  0  0  0  0
    0.0070   16.7690   -7.7710 H   0  0  0  0  0  0  0  0  0  0  0  0
   -3.2320   12.6210   -6.8090 H   0  0  0  0  0  0  0  0  0  0  0  0
   -1.6730   12.3030   -7.3010 H   0  0  0  0  0  0  0  0  0  0  0  0
   -2.3930   10.8910   -9.0670 H   0  0  0  0  0  0  0  0  0  0  0  0
   -3.4840   11.5290  -10.2310 H   0  0  0  0  0  0  0  0  0  0  0  0
   -3.6360    7.7430   -6.1680 H   0  0  0  0  0  0  0  0  0  0  0  0
   -3.9120    6.2920   -4.3290 H   0  0  0  0  0  0  0  0  0  0  0  0
   -7.5780    8.8880   -5.8510 H   0  0  0  0  0  0  0  0  0  0  0  0
   -9.8530    8.8200   -2.4080 H   0  0  0  0  0  0  0  0  0  0  0  0
   -9.7940    9.3450   -3.9480 H   0  0  0  0  0  0  0  0  0  0  0  0
   -7.7180   10.2630   -3.6860 H   0  0  0  0  0  0  0  0  0  0  0  0
   -7.4090    9.3180   -2.3580 H   0  0  0  0  0  0  0  0  0  0  0  0
   -8.4480   10.6600   -1.0760 H   0  0  0  0  0  0  0  0  0  0  0  0
   -7.7210   12.6230   -2.8480 H   0  0  0  0  0  0  0  0  0  0  0  0
   -6.6670   11.8520   -1.8310 H   0  0  0  0  0  0  0  0  0  0  0  0
   -7.3630   13.9560   -0.9170 H   0  0  0  0  0  0  0  0  0  0  0  0
   -7.7810   12.7100    0.0430 H   0  0  0  0  0  0  0  0  0  0  0  0
  -11.2340   12.6760   -1.1670 H   0  0  0  0  0  0  0  0  0  0  0  0
  -10.2350   11.8700   -0.1300 H   0  0  0  0  0  0  0  0  0  0  0  0
   -9.9490   11.9040   -2.9890 H   0  0  0  0  0  0  0  0  0  0  0  0
  -10.4550   10.6220   -2.0850 H   0  0  0  0  0  0  0  0  0  0  0  0
   -8.3530    9.7940   -8.0320 H   0  0  0  0  0  0  0  0  0  0  0  0
   -7.8280    8.2610   -8.4080 H   0  0  0  0  0  0  0  0  0  0  0  0
   -8.1990   11.4350   -9.9340 H   0  0  0  0  0  0  0  0  0  0  0  0
   -8.0100   10.8000  -11.4610 H   0  0  0  0  0  0  0  0  0  0  0  0
   -6.0460   11.9570  -10.5030 H   0  0  0  0  0  0  0  0  0  0  0  0
   -5.8080   10.4800  -11.1990 H   0  0  0  0  0  0  0  0  0  0  0  0
  -11.4380   10.5300  -10.3190 H   0  0  0  0  0  0  0  0  0  0  0  0
  -11.5710    9.3850   -9.1610 H   0  0  0  0  0  0  0  0  0  0  0  0
  -10.4900   10.5900   -8.9860 H   0  0  0  0  0  0  0  0  0  0  0  0
   -3.8190   14.5240   -9.6160 H   0  0  0  0  0  0  0  0  0  0  0  0
    0.3540   18.3330   -5.9080 H   0  0  0  0  0  0  0  0  0  0  0  0
   -1.0160   18.1830   -5.0270 H   0  0  0  0  0  0  0  0  0  0  0  0
    0.4140   17.7560   -4.3790 H   0  0  0  0  0  0  0  0  0  0  0  0
  1  2  1  0  0  0  0
  1 48  1  0  0  0  0
  1 49  1  0  0  0  0
  1 50  1  0  0  0  0
  2  3  1  0  0  0  0
  2  7  1  0  0  0  0
  2 46  1  0  0  0  0
  3  4  1  0  0  0  0
  3 51  1  0  0  0  0
  3 52  1  0  0  0  0
  4  5  1  0  0  0  0
  4 53  1  0  0  0  0
  4 54  1  0  0  0  0
  5  6  1  0  0  0  0
  5  8  1  0  0  0  0
  5 55  1  0  0  0  0
  6  7  1  0  0  0  0
  6 56  1  0  0  0  0
  6 57  1  0  0  0  0
  7 58  1  0  0  0  0
  7 59  1  0  0  0  0
  8  9  1  0  0  0  0
  8 60  1  0  0  0  0
  8 61  1  0  0  0  0
  9 10  1  0  0  0  0
  9 45  1  0  0  0  0
  9 47  1  6  0  0  0
 10 11  1  0  0  0  0
 10 62  1  0  0  0  0
 10 63  1  0  0  0  0
 11 12  1  0  0  0  0
 11 15  1  0  0  0  0
 12 13  2  0  0  0  0
 12 40  1  0  0  0  0
 13 14  1  0  0  0  0
 13 37  1  0  0  0  0
 14 15  2  0  0  0  0
 14 16  1  0  0  0  0
 16 17  2  0  0  0  0
 16 21  1  0  0  0  0
 17 18  1  0  0  0  0
 17 64  1  0  0  0  0
 18 19  2  0  0  0  0
 18 65  1  0  0  0  0
 19 20  1  0  0  0  0
 19 33  1  0  0  0  0
 20 21  2  0  0  0  0
 20 22  1  0  0  0  0
 21 66  1  0  0  0  0
 22 23  1  0  0  0  0
 23 24  1  0  0  0  0
 23 67  1  0  0  0  0
 23 68  1  0  0  0  0
 24 25  1  0  0  0  0
 24 69  1  0  0  0  0
 24 70  1  0  0  0  0
 25 26  1  0  0  0  0
 25 30  1  0  0  0  0
 25 71  1  0  0  0  0
 26 27  1  0  0  0  0
 26 72  1  0  0  0  0
 26 73  1  0  0  0  0
 27 28  1  0  0  0  0
 27 74  1  0  0  0  0
 27 75  1  0  0  0  0
 28 29  1  0  0  0  0
 28 31  1  0  0  0  0
 28 32  1  0  0  0  0
 29 30  1  0  0  0  0
 29 76  1  0  0  0  0
 29 77  1  0  0  0  0
 30 78  1  0  0  0  0
 30 79  1  0  0  0  0
 33 34  1  0  0  0  0
 33 35  1  0  0  0  0
 33 36  1  0  0  0  0
 37 38  1  0  0  0  0
 37 80  1  0  0  0  0
 37 81  1  0  0  0  0
 38 39  1  0  0  0  0
 38 41  1  0  0  0  0
 39 40  1  0  0  0  0
 39 82  1  0  0  0  0
 39 83  1  0  0  0  0
 40 84  1  0  0  0  0
 40 85  1  0  0  0  0
 41 42  2  0  0  0  0
 41 43  2  0  0  0  0
 41 44  1  0  0  0  0
 44 86  1  0  0  0  0
 44 87  1  0  0  0  0
 44 88  1  0  0  0  0
 45 89  1  0  0  0  0
 46 90  1  0  0  0  0
 46 91  1  0  0  0  0
 46 92  1  0  0  0  0
M  CHG  2   5   1  25   1
M  END
