2HHN-CatS_142.pdb
 OpenBabel12031817073D

 87 91  0  0  1  0  0  0  0  0999 V2000
   -9.4490   12.9050  -10.1140 C   0  0  0  0  0  0  0  0  0  0  0  0
  -10.2200   11.6550  -10.2010 N   0  0  0  0  0  0  0  0  0  0  0  0
   -9.8330   10.4970   -9.6100 C   0  0  0  0  0  0  0  0  0  0  0  0
  -10.7010    9.7880   -9.0850 O   0  0  0  0  0  0  0  0  0  0  0  0
   -8.5320   10.1060   -9.5830 N   0  0  0  0  0  0  0  0  0  0  0  0
   -7.6550   10.4750  -10.7130 C   0  0  0  0  0  0  0  0  0  0  0  0
   -6.4090   11.2560  -10.2440 C   0  0  0  0  0  0  0  0  0  0  0  0
   -5.7610   10.5600   -9.0600 C   0  0  0  0  0  0  0  0  0  0  0  0
   -6.4390    9.7390   -8.2530 C   0  0  0  0  0  0  0  0  0  0  0  0
   -5.4590    9.2990   -7.3320 C   0  0  0  0  0  0  0  0  0  0  0  0
   -4.3140    9.8730   -7.6360 N   0  0  0  0  0  0  0  0  0  0  0  0
   -4.4580   10.6840   -8.7060 N   0  0  0  0  0  0  0  0  0  0  0  0
   -3.3720   11.4600   -9.3200 C   0  0  0  0  0  0  0  0  0  0  0  0
   -3.1770   12.8690   -8.7330 C   0  0  2  0  0  0  0  0  0  0  0  0
   -2.6230   12.8210   -7.2940 C   0  0  0  0  0  0  0  0  0  0  0  0
   -2.1410   14.1760   -6.8340 N   0  3  0  0  0  0  0  0  0  0  0  0
   -1.6390   14.1860   -5.4570 C   0  0  0  0  0  0  0  0  0  0  0  0
   -1.3430   15.5990   -4.9790 C   0  0  0  0  0  0  0  0  0  0  0  0
   -0.3170   16.2500   -5.8910 C   0  0  0  0  0  0  0  0  0  0  0  0
   -0.8020   16.2150   -7.3350 C   0  0  0  0  0  0  0  0  0  0  0  0
   -1.1490   14.7850   -7.7450 C   0  0  0  0  0  0  0  0  0  0  0  0
   -4.4160   13.5940   -8.7580 O   0  0  0  0  0  0  0  0  0  0  0  0
   -5.5900    8.3550   -6.2340 C   0  0  0  0  0  0  0  0  0  0  0  0
   -4.5860    7.4700   -5.8790 C   0  0  0  0  0  0  0  0  0  0  0  0
   -4.7540    6.6060   -4.8240 C   0  0  0  0  0  0  0  0  0  0  0  0
   -5.9170    6.5910   -4.0780 C   0  0  0  0  0  0  0  0  0  0  0  0
   -6.9240    7.4760   -4.4420 C   0  0  0  0  0  0  0  0  0  0  0  0
   -6.7620    8.3340   -5.5040 C   0  0  0  0  0  0  0  0  0  0  0  0
   -8.4810    7.6030   -3.5500 S   0  0  0  0  0  0  0  0  0  0  0  0
   -9.0390    9.3240   -3.4550 C   0  0  0  0  0  0  0  0  0  0  0  0
   -7.9060   10.1760   -2.8410 C   0  0  0  0  0  0  0  0  0  0  0  0
   -8.3880   11.1940   -1.8400 N   0  3  2  0  0  0  0  0  0  0  0  0
   -9.8450   11.5480   -2.0010 C   0  0  0  0  0  0  0  0  0  0  0  0
  -10.2980   12.5070   -0.8820 C   0  0  0  0  0  0  0  0  0  0  0  0
   -9.4160   13.7710   -0.8820 C   0  0  2  0  0  0  0  0  0  0  0  0
   -7.9350   13.3880   -0.7030 C   0  0  0  0  0  0  0  0  0  0  0  0
   -7.5040   12.4160   -1.8210 C   0  0  0  0  0  0  0  0  0  0  0  0
   -9.8010   14.6020    0.1660 F   0  0  0  0  0  0  0  0  0  0  0  0
   -5.9610    5.5870   -2.9260 C   0  0  0  0  0  0  0  0  0  0  0  0
   -5.8060    6.2040   -1.6890 F   0  0  0  0  0  0  0  0  0  0  0  0
   -7.1770    4.9160   -2.9100 F   0  0  0  0  0  0  0  0  0  0  0  0
   -4.9670    4.6150   -3.0040 F   0  0  0  0  0  0  0  0  0  0  0  0
   -7.9220    9.4190   -8.4160 C   0  0  0  0  0  0  0  0  0  0  0  0
   -2.5030   13.3410   -9.3020 H   0  0  0  0  0  0  0  0  0  0  0  0
  -10.0100   13.6590  -10.4560 H   0  0  0  0  0  0  0  0  0  0  0  0
   -9.1950   13.0790   -9.1620 H   0  0  0  0  0  0  0  0  0  0  0  0
   -8.6170   12.8270  -10.6640 H   0  0  0  0  0  0  0  0  0  0  0  0
  -11.0110   11.6760  -10.5910 H   0  0  0  0  0  0  0  0  0  0  0  0
   -8.1720   11.0410  -11.3540 H   0  0  0  0  0  0  0  0  0  0  0  0
   -7.3430    9.6300  -11.1510 H   0  0  0  0  0  0  0  0  0  0  0  0
   -6.6790   12.1810   -9.9790 H   0  0  0  0  0  0  0  0  0  0  0  0
   -5.7500   11.2950  -10.9960 H   0  0  0  0  0  0  0  0  0  0  0  0
   -3.5670   11.5520  -10.2970 H   0  0  0  0  0  0  0  0  0  0  0  0
   -2.5270   10.9590   -9.1350 H   0  0  0  0  0  0  0  0  0  0  0  0
   -1.8600   12.1760   -7.2590 H   0  0  0  0  0  0  0  0  0  0  0  0
   -3.3620   12.5340   -6.6840 H   0  0  0  0  0  0  0  0  0  0  0  0
   -2.8680   14.7250   -6.8530 H   0  0  0  0  0  0  0  0  0  0  0  0
   -0.8020   13.6390   -5.4160 H   0  0  0  0  0  0  0  0  0  0  0  0
   -2.3540   13.8040   -4.8720 H   0  0  0  0  0  0  0  0  0  0  0  0
   -0.9890   15.5640   -4.0450 H   0  0  0  0  0  0  0  0  0  0  0  0
   -2.1890   16.1300   -5.0090 H   0  0  0  0  0  0  0  0  0  0  0  0
    0.5510   15.7580   -5.8150 H   0  0  0  0  0  0  0  0  0  0  0  0
   -0.1990   17.2030   -5.6120 H   0  0  0  0  0  0  0  0  0  0  0  0
   -0.0790   16.5720   -7.9270 H   0  0  0  0  0  0  0  0  0  0  0  0
   -1.6280   16.7750   -7.3940 H   0  0  0  0  0  0  0  0  0  0  0  0
   -0.3170   14.2300   -7.7360 H   0  0  0  0  0  0  0  0  0  0  0  0
   -1.5450   14.8080   -8.6650 H   0  0  0  0  0  0  0  0  0  0  0  0
   -5.0030   13.3470   -7.9800 H   0  0  0  0  0  0  0  0  0  0  0  0
   -3.7280    7.4620   -6.3950 H   0  0  0  0  0  0  0  0  0  0  0  0
   -4.0170    5.9720   -4.5900 H   0  0  0  0  0  0  0  0  0  0  0  0
   -7.5060    8.9540   -5.7530 H   0  0  0  0  0  0  0  0  0  0  0  0
   -9.8570    9.3840   -2.8840 H   0  0  0  0  0  0  0  0  0  0  0  0
   -9.2630    9.6620   -4.3710 H   0  0  0  0  0  0  0  0  0  0  0  0
   -7.4340   10.6540   -3.5800 H   0  0  0  0  0  0  0  0  0  0  0  0
   -7.3030    9.5480   -2.3490 H   0  0  0  0  0  0  0  0  0  0  0  0
   -8.3020   10.8120   -1.0160 H   0  0  0  0  0  0  0  0  0  0  0  0
  -10.3940   10.7120   -1.9620 H   0  0  0  0  0  0  0  0  0  0  0  0
   -9.9720   12.0010   -2.8840 H   0  0  0  0  0  0  0  0  0  0  0  0
  -10.2210   12.0470    0.0040 H   0  0  0  0  0  0  0  0  0  0  0  0
  -11.2490   12.7720   -1.0410 H   0  0  0  0  0  0  0  0  0  0  0  0
   -9.5300   14.2470   -1.7550 H   0  0  0  0  0  0  0  0  0  0  0  0
   -7.8110   12.9490    0.1870 H   0  0  0  0  0  0  0  0  0  0  0  0
   -7.3740   14.2140   -0.7530 H   0  0  0  0  0  0  0  0  0  0  0  0
   -6.5570   12.1380   -1.6660 H   0  0  0  0  0  0  0  0  0  0  0  0
   -7.5870   12.8840   -2.7010 H   0  0  0  0  0  0  0  0  0  0  0  0
   -8.4050    9.7010   -7.5870 H   0  0  0  0  0  0  0  0  0  0  0  0
   -8.0020    8.4350   -8.5720 H   0  0  0  0  0  0  0  0  0  0  0  0
  1  2  1  0  0  0  0
  1 45  1  0  0  0  0
  1 46  1  0  0  0  0
  1 47  1  0  0  0  0
  2  3  1  0  0  0  0
  2 48  1  0  0  0  0
  3  4  2  0  0  0  0
  3  5  1  0  0  0  0
  5  6  1  0  0  0  0
  5 43  1  0  0  0  0
  6  7  1  0  0  0  0
  6 49  1  0  0  0  0
  6 50  1  0  0  0  0
  7  8  1  0  0  0  0
  7 51  1  0  0  0  0
  7 52  1  0  0  0  0
  8  9  2  0  0  0  0
  8 12  1  0  0  0  0
  9 10  1  0  0  0  0
  9 43  1  0  0  0  0
 10 11  2  0  0  0  0
 10 23  1  0  0  0  0
 11 12  1  0  0  0  0
 12 13  1  0  0  0  0
 13 14  1  0  0  0  0
 13 53  1  0  0  0  0
 13 54  1  0  0  0  0
 14 15  1  0  0  0  0
 14 22  1  0  0  0  0
 14 44  1  6  0  0  0
 15 16  1  0  0  0  0
 15 55  1  0  0  0  0
 15 56  1  0  0  0  0
 16 17  1  0  0  0  0
 16 21  1  0  0  0  0
 16 57  1  0  0  0  0
 17 18  1  0  0  0  0
 17 58  1  0  0  0  0
 17 59  1  0  0  0  0
 18 19  1  0  0  0  0
 18 60  1  0  0  0  0
 18 61  1  0  0  0  0
 19 20  1  0  0  0  0
 19 62  1  0  0  0  0
 19 63  1  0  0  0  0
 20 21  1  0  0  0  0
 20 64  1  0  0  0  0
 20 65  1  0  0  0  0
 21 66  1  0  0  0  0
 21 67  1  0  0  0  0
 22 68  1  0  0  0  0
 23 24  2  0  0  0  0
 23 28  1  0  0  0  0
 24 25  1  0  0  0  0
 24 69  1  0  0  0  0
 25 26  2  0  0  0  0
 25 70  1  0  0  0  0
 26 27  1  0  0  0  0
 26 39  1  0  0  0  0
 27 28  2  0  0  0  0
 27 29  1  0  0  0  0
 28 71  1  0  0  0  0
 29 30  1  0  0  0  0
 30 31  1  0  0  0  0
 30 72  1  0  0  0  0
 30 73  1  0  0  0  0
 31 32  1  0  0  0  0
 31 74  1  0  0  0  0
 31 75  1  0  0  0  0
 32 33  1  0  0  0  0
 32 37  1  0  0  0  0
 32 76  1  1  0  0  0
 33 34  1  0  0  0  0
 33 77  1  0  0  0  0
 33 78  1  0  0  0  0
 34 35  1  0  0  0  0
 34 79  1  0  0  0  0
 34 80  1  0  0  0  0
 35 36  1  0  0  0  0
 35 38  1  0  0  0  0
 35 81  1  6  0  0  0
 36 37  1  0  0  0  0
 36 82  1  0  0  0  0
 36 83  1  0  0  0  0
 37 84  1  0  0  0  0
 37 85  1  0  0  0  0
 39 40  1  0  0  0  0
 39 41  1  0  0  0  0
 39 42  1  0  0  0  0
 43 86  1  0  0  0  0
 43 87  1  0  0  0  0
M  CHG  2  16   1  32   1
M  END
