2HHN-CatS_174.pdb
 OpenBabel12031817073D

 90 94  0  0  1  0  0  0  0  0999 V2000
  -11.0070   10.3080   -9.6510 C   0  0  0  0  0  0  0  0  0  0  0  0
   -9.7720    9.3510  -10.5740 S   0  0  0  0  0  0  0  0  0  0  0  0
   -9.8160    9.7620  -11.9380 O   0  0  0  0  0  0  0  0  0  0  0  0
  -10.0360    7.9680  -10.3510 O   0  0  0  0  0  0  0  0  0  0  0  0
   -8.2600    9.6890  -10.0310 N   0  0  0  0  0  0  0  0  0  0  0  0
   -7.2400    9.9750  -11.0620 C   0  0  0  0  0  0  0  0  0  0  0  0
   -6.0900   10.8580  -10.5330 C   0  0  0  0  0  0  0  0  0  0  0  0
   -5.5670   10.3210   -9.2150 C   0  0  0  0  0  0  0  0  0  0  0  0
   -6.2720    9.4640   -8.4710 C   0  0  0  0  0  0  0  0  0  0  0  0
   -5.4280    9.2270   -7.3550 C   0  0  0  0  0  0  0  0  0  0  0  0
   -4.3350    9.9410   -7.5100 N   0  0  0  0  0  0  0  0  0  0  0  0
   -4.3690   10.6410   -8.6630 N   0  0  0  0  0  0  0  0  0  0  0  0
   -3.2450   11.4330   -9.1910 C   0  0  0  0  0  0  0  0  0  0  0  0
   -3.1390   12.9020   -8.7340 C   0  0  2  0  0  0  0  0  0  0  0  0
   -2.6180   12.9330   -7.2790 C   0  0  0  0  0  0  0  0  0  0  0  0
   -2.2520   14.3030   -6.7550 N   0  3  2  0  0  0  0  0  0  0  0  0
   -1.5520   15.1870   -7.7670 C   0  0  0  0  0  0  0  0  0  0  0  0
   -0.2610   15.8450   -7.2380 C   0  0  0  0  0  0  0  0  0  0  0  0
   -0.4640   16.5200   -5.8640 C   0  0  1  0  0  0  0  0  0  0  0  0
   -1.2100   15.6050   -4.8600 C   0  0  0  0  0  0  0  0  0  0  0  0
   -1.5290   14.2080   -5.4340 C   0  0  0  0  0  0  0  0  0  0  0  0
    0.8830   16.9310   -5.2970 C   0  0  0  0  0  0  0  0  0  0  0  0
    1.8260   16.1620   -5.1630 O   0  0  0  0  0  0  0  0  0  0  0  0
    0.9290   18.2310   -4.9700 N   0  0  0  0  0  0  0  0  0  0  0  0
   -4.4120   13.5560   -8.8320 O   0  0  0  0  0  0  0  0  0  0  0  0
   -5.6290    8.3830   -6.1860 C   0  0  0  0  0  0  0  0  0  0  0  0
   -4.5350    7.7230   -5.6690 C   0  0  0  0  0  0  0  0  0  0  0  0
   -4.6520    6.9210   -4.5610 C   0  0  0  0  0  0  0  0  0  0  0  0
   -5.8610    6.7490   -3.9190 C   0  0  0  0  0  0  0  0  0  0  0  0
   -6.9720    7.3980   -4.4450 C   0  0  0  0  0  0  0  0  0  0  0  0
   -6.8570    8.1960   -5.5660 C   0  0  0  0  0  0  0  0  0  0  0  0
   -8.5990    7.2970   -3.6790 S   0  0  0  0  0  0  0  0  0  0  0  0
   -9.2690    8.9160   -3.2020 C   0  0  0  0  0  0  0  0  0  0  0  0
   -8.0850    9.8310   -2.8280 C   0  0  0  0  0  0  0  0  0  0  0  0
   -8.4600   10.9590   -1.8990 N   0  3  0  0  0  0  0  0  0  0  0  0
   -7.5730   12.1200   -1.9740 C   0  0  0  0  0  0  0  0  0  0  0  0
   -7.8950   13.1280   -0.8790 C   0  0  0  0  0  0  0  0  0  0  0  0
   -9.3400   13.5900   -0.9390 C   0  0  0  0  0  0  0  0  0  0  0  0
  -10.2580   12.3790   -1.0060 C   0  0  0  0  0  0  0  0  0  0  0  0
   -9.8400   11.4020   -2.1010 C   0  0  0  0  0  0  0  0  0  0  0  0
   -9.6350   14.3580    0.1820 F   0  0  0  0  0  0  0  0  0  0  0  0
   -9.5290   14.4000   -2.0530 F   0  0  0  0  0  0  0  0  0  0  0  0
   -5.8320    5.8640   -2.6730 C   0  0  0  0  0  0  0  0  0  0  0  0
   -5.6320    6.6140   -1.5230 F   0  0  0  0  0  0  0  0  0  0  0  0
   -7.0100    5.1480   -2.4710 F   0  0  0  0  0  0  0  0  0  0  0  0
   -4.8110    4.9230   -2.7500 F   0  0  0  0  0  0  0  0  0  0  0  0
   -7.6410    8.9390   -8.9070 C   0  0  0  0  0  0  0  0  0  0  0  0
   -2.5010   13.3920   -9.3280 H   0  0  0  0  0  0  0  0  0  0  0  0
  -10.5400   10.8720   -8.9710 H   0  0  0  0  0  0  0  0  0  0  0  0
  -11.5210   10.8920  -10.2800 H   0  0  0  0  0  0  0  0  0  0  0  0
  -11.6420    9.6850   -9.1940 H   0  0  0  0  0  0  0  0  0  0  0  0
   -7.6800   10.4440  -11.8280 H   0  0  0  0  0  0  0  0  0  0  0  0
   -6.8440    9.1020  -11.3450 H   0  0  0  0  0  0  0  0  0  0  0  0
   -6.4220   11.7920  -10.4020 H   0  0  0  0  0  0  0  0  0  0  0  0
   -5.3430   10.8490  -11.1990 H   0  0  0  0  0  0  0  0  0  0  0  0
   -3.3150   11.4300  -10.1880 H   0  0  0  0  0  0  0  0  0  0  0  0
   -2.4260   10.9920   -8.8220 H   0  0  0  0  0  0  0  0  0  0  0  0
   -1.8060   12.3520   -7.2260 H   0  0  0  0  0  0  0  0  0  0  0  0
   -3.3740   12.6130   -6.7080 H   0  0  0  0  0  0  0  0  0  0  0  0
   -3.0440   14.7130   -6.5640 H   0  0  0  0  0  0  0  0  0  0  0  0
   -2.1840   15.9090   -8.0480 H   0  0  0  0  0  0  0  0  0  0  0  0
   -1.2830   14.5980   -8.5310 H   0  0  0  0  0  0  0  0  0  0  0  0
    0.0420   16.5350   -7.8950 H   0  0  0  0  0  0  0  0  0  0  0  0
    0.4230   15.1250   -7.1230 H   0  0  0  0  0  0  0  0  0  0  0  0
   -1.0370   17.3260   -6.0040 H   0  0  0  0  0  0  0  0  0  0  0  0
   -2.0670   16.0480   -4.6000 H   0  0  0  0  0  0  0  0  0  0  0  0
   -0.6070   15.4710   -4.0740 H   0  0  0  0  0  0  0  0  0  0  0  0
   -2.1020   13.7110   -4.7820 H   0  0  0  0  0  0  0  0  0  0  0  0
   -0.6650   13.7270   -5.5840 H   0  0  0  0  0  0  0  0  0  0  0  0
    0.2270   18.7490   -5.0840 H   0  0  0  0  0  0  0  0  0  0  0  0
    1.6690   18.5680   -4.6350 H   0  0  0  0  0  0  0  0  0  0  0  0
   -4.3210   14.4760   -9.2270 H   0  0  0  0  0  0  0  0  0  0  0  0
   -3.6420    7.8290   -6.1070 H   0  0  0  0  0  0  0  0  0  0  0  0
   -3.8430    6.4500   -4.2120 H   0  0  0  0  0  0  0  0  0  0  0  0
   -7.6700    8.6450   -5.9370 H   0  0  0  0  0  0  0  0  0  0  0  0
   -9.8830    8.8130   -2.4180 H   0  0  0  0  0  0  0  0  0  0  0  0
   -9.7880    9.3130   -3.9590 H   0  0  0  0  0  0  0  0  0  0  0  0
   -7.7100   10.2240   -3.6680 H   0  0  0  0  0  0  0  0  0  0  0  0
   -7.4190    9.2640   -2.3440 H   0  0  0  0  0  0  0  0  0  0  0  0
   -8.4180   10.6310   -1.0500 H   0  0  0  0  0  0  0  0  0  0  0  0
   -7.6800   12.5550   -2.8670 H   0  0  0  0  0  0  0  0  0  0  0  0
   -6.6330   11.8030   -1.8450 H   0  0  0  0  0  0  0  0  0  0  0  0
   -7.3030   13.9270   -0.9780 H   0  0  0  0  0  0  0  0  0  0  0  0
   -7.7410   12.7050    0.0130 H   0  0  0  0  0  0  0  0  0  0  0  0
  -11.1940   12.6820   -1.1930 H   0  0  0  0  0  0  0  0  0  0  0  0
  -10.2300   11.8970   -0.1320 H   0  0  0  0  0  0  0  0  0  0  0  0
   -9.9200   11.8550   -2.9890 H   0  0  0  0  0  0  0  0  0  0  0  0
  -10.4410   10.6050   -2.0570 H   0  0  0  0  0  0  0  0  0  0  0  0
   -8.2580    8.9830   -8.1220 H   0  0  0  0  0  0  0  0  0  0  0  0
   -7.4950    8.0070   -9.2380 H   0  0  0  0  0  0  0  0  0  0  0  0
  1  2  1  0  0  0  0
  1 49  1  0  0  0  0
  1 50  1  0  0  0  0
  1 51  1  0  0  0  0
  2  3  2  0  0  0  0
  2  4  2  0  0  0  0
  2  5  1  0  0  0  0
  5  6  1  0  0  0  0
  5 47  1  0  0  0  0
  6  7  1  0  0  0  0
  6 52  1  0  0  0  0
  6 53  1  0  0  0  0
  7  8  1  0  0  0  0
  7 54  1  0  0  0  0
  7 55  1  0  0  0  0
  8  9  2  0  0  0  0
  8 12  1  0  0  0  0
  9 10  1  0  0  0  0
  9 47  1  0  0  0  0
 10 11  2  0  0  0  0
 10 26  1  0  0  0  0
 11 12  1  0  0  0  0
 12 13  1  0  0  0  0
 13 14  1  0  0  0  0
 13 56  1  0  0  0  0
 13 57  1  0  0  0  0
 14 15  1  0  0  0  0
 14 25  1  0  0  0  0
 14 48  1  6  0  0  0
 15 16  1  0  0  0  0
 15 58  1  0  0  0  0
 15 59  1  0  0  0  0
 16 17  1  0  0  0  0
 16 21  1  0  0  0  0
 16 60  1  1  0  0  0
 17 18  1  0  0  0  0
 17 61  1  0  0  0  0
 17 62  1  0  0  0  0
 18 19  1  0  0  0  0
 18 63  1  0  0  0  0
 18 64  1  0  0  0  0
 19 20  1  0  0  0  0
 19 22  1  0  0  0  0
 19 65  1  6  0  0  0
 20 21  1  0  0  0  0
 20 66  1  0  0  0  0
 20 67  1  0  0  0  0
 21 68  1  0  0  0  0
 21 69  1  0  0  0  0
 22 23  2  0  0  0  0
 22 24  1  0  0  0  0
 24 70  1  0  0  0  0
 24 71  1  0  0  0  0
 25 72  1  0  0  0  0
 26 27  2  0  0  0  0
 26 31  1  0  0  0  0
 27 28  1  0  0  0  0
 27 73  1  0  0  0  0
 28 29  2  0  0  0  0
 28 74  1  0  0  0  0
 29 30  1  0  0  0  0
 29 43  1  0  0  0  0
 30 31  2  0  0  0  0
 30 32  1  0  0  0  0
 31 75  1  0  0  0  0
 32 33  1  0  0  0  0
 33 34  1  0  0  0  0
 33 76  1  0  0  0  0
 33 77  1  0  0  0  0
 34 35  1  0  0  0  0
 34 78  1  0  0  0  0
 34 79  1  0  0  0  0
 35 36  1  0  0  0  0
 35 40  1  0  0  0  0
 35 80  1  0  0  0  0
 36 37  1  0  0  0  0
 36 81  1  0  0  0  0
 36 82  1  0  0  0  0
 37 38  1  0  0  0  0
 37 83  1  0  0  0  0
 37 84  1  0  0  0  0
 38 39  1  0  0  0  0
 38 41  1  0  0  0  0
 38 42  1  0  0  0  0
 39 40  1  0  0  0  0
 39 85  1  0  0  0  0
 39 86  1  0  0  0  0
 40 87  1  0  0  0  0
 40 88  1  0  0  0  0
 43 44  1  0  0  0  0
 43 45  1  0  0  0  0
 43 46  1  0  0  0  0
 47 89  1  0  0  0  0
 47 90  1  0  0  0  0
M  CHG  2  16   1  35   1
M  END
