2HHN-CatS_130.pdb
 OpenBabel12031817073D

 96100  0  0  1  0  0  0  0  0999 V2000
  -12.3510   10.0730  -11.6690 C   0  0  0  0  0  0  0  0  0  0  0  0
  -11.7610   11.3290  -11.0020 C   0  0  0  0  0  0  0  0  0  0  0  0
  -12.5850   11.6800   -9.7540 C   0  0  0  0  0  0  0  0  0  0  0  0
  -11.9090   12.4900  -12.0000 C   0  0  0  0  0  0  0  0  0  0  0  0
  -10.3260   11.2070  -10.6790 N   0  0  0  0  0  0  0  0  0  0  0  0
   -9.8730   10.2590   -9.8250 C   0  0  0  0  0  0  0  0  0  0  0  0
  -10.6560    9.5300   -9.2030 O   0  0  0  0  0  0  0  0  0  0  0  0
   -8.5310   10.1450   -9.6510 N   0  0  0  0  0  0  0  0  0  0  0  0
   -7.6320   10.6180  -10.7270 C   0  0  0  0  0  0  0  0  0  0  0  0
   -6.3560   11.3260  -10.2250 C   0  0  0  0  0  0  0  0  0  0  0  0
   -5.7470   10.5860   -9.0480 C   0  0  0  0  0  0  0  0  0  0  0  0
   -6.4560    9.7750   -8.2580 C   0  0  0  0  0  0  0  0  0  0  0  0
   -5.5080    9.3370   -7.3030 C   0  0  0  0  0  0  0  0  0  0  0  0
   -4.3520    9.8970   -7.5790 N   0  0  0  0  0  0  0  0  0  0  0  0
   -4.4490   10.6830   -8.6730 N   0  0  0  0  0  0  0  0  0  0  0  0
   -3.3250   11.3690   -9.3240 C   0  0  0  0  0  0  0  0  0  0  0  0
   -3.0860   12.8070   -8.8290 C   0  0  2  0  0  0  0  0  0  0  0  0
   -2.5790   12.8240   -7.3710 C   0  0  0  0  0  0  0  0  0  0  0  0
   -2.1270   14.1830   -6.8920 N   0  3  0  0  0  0  0  0  0  0  0  0
   -1.1300   14.8250   -7.7750 C   0  0  0  0  0  0  0  0  0  0  0  0
   -0.7930   16.2420   -7.3180 C   0  0  0  0  0  0  0  0  0  0  0  0
   -0.3200   16.2350   -5.8700 C   0  0  0  0  0  0  0  0  0  0  0  0
   -1.3510   15.5520   -4.9870 C   0  0  0  0  0  0  0  0  0  0  0  0
   -1.6370   14.1530   -5.5100 C   0  0  0  0  0  0  0  0  0  0  0  0
   -4.3110   13.5540   -8.9060 O   0  0  0  0  0  0  0  0  0  0  0  0
   -5.6730    8.4370   -6.1730 C   0  0  0  0  0  0  0  0  0  0  0  0
   -4.6450    7.5760   -5.8440 C   0  0  0  0  0  0  0  0  0  0  0  0
   -4.7690    6.7000   -4.7920 C   0  0  0  0  0  0  0  0  0  0  0  0
   -5.9230    6.6370   -4.0370 C   0  0  0  0  0  0  0  0  0  0  0  0
   -6.9590    7.4980   -4.3750 C   0  0  0  0  0  0  0  0  0  0  0  0
   -6.8340    8.3860   -5.4190 C   0  0  0  0  0  0  0  0  0  0  0  0
   -8.5320    7.4900   -3.5050 S   0  0  0  0  0  0  0  0  0  0  0  0
   -9.1300    9.1910   -3.3730 C   0  0  0  0  0  0  0  0  0  0  0  0
   -7.9830   10.0300   -2.7760 C   0  0  0  0  0  0  0  0  0  0  0  0
   -8.4570   11.1230   -1.8530 N   0  3  2  0  0  0  0  0  0  0  0  0
   -9.8440   11.5530   -2.0300 C   0  0  0  0  0  0  0  0  0  0  0  0
  -10.2610   12.5030   -0.9110 C   0  0  0  0  0  0  0  0  0  0  0  0
   -9.3560   13.7230   -0.8320 C   0  0  1  0  0  0  0  0  0  0  0  0
   -7.9050   13.2780   -0.7980 C   0  0  0  0  0  0  0  0  0  0  0  0
   -7.5840   12.2950   -1.9160 C   0  0  0  0  0  0  0  0  0  0  0  0
   -9.6010   14.5400   -1.9310 F   0  0  0  0  0  0  0  0  0  0  0  0
   -5.9280    5.6210   -2.8940 C   0  0  0  0  0  0  0  0  0  0  0  0
   -5.7500    6.2140   -1.6500 F   0  0  0  0  0  0  0  0  0  0  0  0
   -7.1150    4.8960   -2.8130 F   0  0  0  0  0  0  0  0  0  0  0  0
   -4.9050    4.6980   -3.0650 F   0  0  0  0  0  0  0  0  0  0  0  0
   -7.9410    9.4890   -8.4540 C   0  0  0  0  0  0  0  0  0  0  0  0
   -2.3900   13.2210   -9.4150 H   0  0  0  0  0  0  0  0  0  0  0  0
  -11.6300    9.3870  -11.7690 H   0  0  0  0  0  0  0  0  0  0  0  0
  -13.0890    9.7050  -11.1030 H   0  0  0  0  0  0  0  0  0  0  0  0
  -12.7180   10.3090  -12.5700 H   0  0  0  0  0  0  0  0  0  0  0  0
  -11.9700   11.7640   -8.9700 H   0  0  0  0  0  0  0  0  0  0  0  0
  -13.0660   12.5470   -9.8970 H   0  0  0  0  0  0  0  0  0  0  0  0
  -13.2580   10.9610   -9.5790 H   0  0  0  0  0  0  0  0  0  0  0  0
  -11.0050   12.8800  -12.1830 H   0  0  0  0  0  0  0  0  0  0  0  0
  -12.3090   12.1560  -12.8530 H   0  0  0  0  0  0  0  0  0  0  0  0
  -12.5080   13.1930  -11.6130 H   0  0  0  0  0  0  0  0  0  0  0  0
   -9.7640   11.7780  -11.0380 H   0  0  0  0  0  0  0  0  0  0  0  0
   -8.1410   11.2590  -11.3020 H   0  0  0  0  0  0  0  0  0  0  0  0
   -7.3300    9.8070  -11.2260 H   0  0  0  0  0  0  0  0  0  0  0  0
   -6.5870   12.2570   -9.9440 H   0  0  0  0  0  0  0  0  0  0  0  0
   -5.6880   11.3380  -10.9680 H   0  0  0  0  0  0  0  0  0  0  0  0
   -3.5040   11.3990  -10.3080 H   0  0  0  0  0  0  0  0  0  0  0  0
   -2.5030   10.8480   -9.0960 H   0  0  0  0  0  0  0  0  0  0  0  0
   -1.8080   12.1910   -7.2990 H   0  0  0  0  0  0  0  0  0  0  0  0
   -3.3510   12.5570   -6.7950 H   0  0  0  0  0  0  0  0  0  0  0  0
   -2.8640   14.7170   -6.8840 H   0  0  0  0  0  0  0  0  0  0  0  0
   -1.4940   14.8650   -8.7060 H   0  0  0  0  0  0  0  0  0  0  0  0
   -0.2890   14.2840   -7.7530 H   0  0  0  0  0  0  0  0  0  0  0  0
   -1.6050   16.8210   -7.3950 H   0  0  0  0  0  0  0  0  0  0  0  0
   -0.0630   16.6110   -7.8940 H   0  0  0  0  0  0  0  0  0  0  0  0
   -0.1850   17.1740   -5.5580 H   0  0  0  0  0  0  0  0  0  0  0  0
    0.5440   15.7350   -5.8080 H   0  0  0  0  0  0  0  0  0  0  0  0
   -2.1950   16.0890   -4.9880 H   0  0  0  0  0  0  0  0  0  0  0  0
   -0.9940   15.4870   -4.0560 H   0  0  0  0  0  0  0  0  0  0  0  0
   -2.3250   13.7200   -4.9310 H   0  0  0  0  0  0  0  0  0  0  0  0
   -0.7850   13.6290   -5.4940 H   0  0  0  0  0  0  0  0  0  0  0  0
   -4.2750   14.2440   -9.6360 H   0  0  0  0  0  0  0  0  0  0  0  0
   -3.7990    7.5900   -6.3780 H   0  0  0  0  0  0  0  0  0  0  0  0
   -4.0050    6.0950   -4.5670 H   0  0  0  0  0  0  0  0  0  0  0  0
   -7.5900    9.0030   -5.6360 H   0  0  0  0  0  0  0  0  0  0  0  0
   -9.9330    9.2300   -2.7780 H   0  0  0  0  0  0  0  0  0  0  0  0
   -9.3990    9.5460   -4.2690 H   0  0  0  0  0  0  0  0  0  0  0  0
   -7.4690   10.4440   -3.5260 H   0  0  0  0  0  0  0  0  0  0  0  0
   -7.4180    9.4090   -2.2300 H   0  0  0  0  0  0  0  0  0  0  0  0
   -8.3690   10.7890   -1.0080 H   0  0  0  0  0  0  0  0  0  0  0  0
  -10.4410   10.7500   -2.0220 H   0  0  0  0  0  0  0  0  0  0  0  0
   -9.9210   12.0330   -2.9030 H   0  0  0  0  0  0  0  0  0  0  0  0
  -10.2220   12.0200   -0.0350 H   0  0  0  0  0  0  0  0  0  0  0  0
  -11.1930   12.8200   -1.0870 H   0  0  0  0  0  0  0  0  0  0  0  0
   -9.5630   14.2040    0.0210 H   0  0  0  0  0  0  0  0  0  0  0  0
   -7.7140   12.8340    0.0790 H   0  0  0  0  0  0  0  0  0  0  0  0
   -7.3150   14.0760   -0.9080 H   0  0  0  0  0  0  0  0  0  0  0  0
   -6.6320   12.0000   -1.8300 H   0  0  0  0  0  0  0  0  0  0  0  0
   -7.7290   12.7520   -2.7920 H   0  0  0  0  0  0  0  0  0  0  0  0
   -8.4340    9.8070   -7.6440 H   0  0  0  0  0  0  0  0  0  0  0  0
   -8.0300    8.5040   -8.5920 H   0  0  0  0  0  0  0  0  0  0  0  0
  1  2  1  0  0  0  0
  1 48  1  0  0  0  0
  1 49  1  0  0  0  0
  1 50  1  0  0  0  0
  2  3  1  0  0  0  0
  2  4  1  0  0  0  0
  2  5  1  0  0  0  0
  3 51  1  0  0  0  0
  3 52  1  0  0  0  0
  3 53  1  0  0  0  0
  4 54  1  0  0  0  0
  4 55  1  0  0  0  0
  4 56  1  0  0  0  0
  5  6  1  0  0  0  0
  5 57  1  0  0  0  0
  6  7  2  0  0  0  0
  6  8  1  0  0  0  0
  8  9  1  0  0  0  0
  8 46  1  0  0  0  0
  9 10  1  0  0  0  0
  9 58  1  0  0  0  0
  9 59  1  0  0  0  0
 10 11  1  0  0  0  0
 10 60  1  0  0  0  0
 10 61  1  0  0  0  0
 11 12  2  0  0  0  0
 11 15  1  0  0  0  0
 12 13  1  0  0  0  0
 12 46  1  0  0  0  0
 13 14  2  0  0  0  0
 13 26  1  0  0  0  0
 14 15  1  0  0  0  0
 15 16  1  0  0  0  0
 16 17  1  0  0  0  0
 16 62  1  0  0  0  0
 16 63  1  0  0  0  0
 17 18  1  0  0  0  0
 17 25  1  0  0  0  0
 17 47  1  6  0  0  0
 18 19  1  0  0  0  0
 18 64  1  0  0  0  0
 18 65  1  0  0  0  0
 19 20  1  0  0  0  0
 19 24  1  0  0  0  0
 19 66  1  0  0  0  0
 20 21  1  0  0  0  0
 20 67  1  0  0  0  0
 20 68  1  0  0  0  0
 21 22  1  0  0  0  0
 21 69  1  0  0  0  0
 21 70  1  0  0  0  0
 22 23  1  0  0  0  0
 22 71  1  0  0  0  0
 22 72  1  0  0  0  0
 23 24  1  0  0  0  0
 23 73  1  0  0  0  0
 23 74  1  0  0  0  0
 24 75  1  0  0  0  0
 24 76  1  0  0  0  0
 25 77  1  0  0  0  0
 26 27  2  0  0  0  0
 26 31  1  0  0  0  0
 27 28  1  0  0  0  0
 27 78  1  0  0  0  0
 28 29  2  0  0  0  0
 28 79  1  0  0  0  0
 29 30  1  0  0  0  0
 29 42  1  0  0  0  0
 30 31  2  0  0  0  0
 30 32  1  0  0  0  0
 31 80  1  0  0  0  0
 32 33  1  0  0  0  0
 33 34  1  0  0  0  0
 33 81  1  0  0  0  0
 33 82  1  0  0  0  0
 34 35  1  0  0  0  0
 34 83  1  0  0  0  0
 34 84  1  0  0  0  0
 35 36  1  0  0  0  0
 35 40  1  0  0  0  0
 35 85  1  1  0  0  0
 36 37  1  0  0  0  0
 36 86  1  0  0  0  0
 36 87  1  0  0  0  0
 37 38  1  0  0  0  0
 37 88  1  0  0  0  0
 37 89  1  0  0  0  0
 38 39  1  0  0  0  0
 38 41  1  0  0  0  0
 38 90  1  1  0  0  0
 39 40  1  0  0  0  0
 39 91  1  0  0  0  0
 39 92  1  0  0  0  0
 40 93  1  0  0  0  0
 40 94  1  0  0  0  0
 42 43  1  0  0  0  0
 42 44  1  0  0  0  0
 42 45  1  0  0  0  0
 46 95  1  0  0  0  0
 46 96  1  0  0  0  0
M  CHG  2  19   1  35   1
M  END
