2HHN-CatS_4.pdb
 OpenBabel12031817073D

 99104  0  0  1  0  0  0  0  0999 V2000
  -11.1640   10.3840   -9.7750 C   0  0  0  0  0  0  0  0  0  0  0  0
   -9.9230    9.1420  -10.2460 S   0  0  0  0  0  0  0  0  0  0  0  0
  -10.0260    8.9480  -11.6560 O   0  0  0  0  0  0  0  0  0  0  0  0
  -10.0520    8.0270   -9.3670 O   0  0  0  0  0  0  0  0  0  0  0  0
   -8.4270    9.6820   -9.9120 N   0  0  0  0  0  0  0  0  0  0  0  0
   -7.4720    9.9780  -10.9970 C   0  0  0  0  0  0  0  0  0  0  0  0
   -6.4210   10.9950  -10.5120 C   0  0  0  0  0  0  0  0  0  0  0  0
   -5.7840   10.5630   -9.2060 C   0  0  0  0  0  0  0  0  0  0  0  0
   -6.3740    9.6380   -8.4450 C   0  0  0  0  0  0  0  0  0  0  0  0
   -5.4600    9.4550   -7.3860 C   0  0  0  0  0  0  0  0  0  0  0  0
   -4.4410   10.2700   -7.5700 N   0  0  0  0  0  0  0  0  0  0  0  0
   -4.6100   11.0170   -8.6890 N   0  0  0  0  0  0  0  0  0  0  0  0
   -3.7690   12.1780   -9.0380 C   0  0  0  0  0  0  0  0  0  0  0  0
   -2.2980   12.3280   -8.5790 C   0  0  0  0  0  0  0  0  0  0  0  0
   -2.1610   12.5420   -7.0530 C   0  0  0  0  0  0  0  0  0  0  0  0
   -1.9320   13.9610   -6.6050 N   0  3  2  0  0  0  0  0  0  0  0  0
   -0.8670   14.6180   -7.4500 C   0  0  0  0  0  0  0  0  0  0  0  0
   -0.6300   16.0790   -7.0280 C   0  0  0  0  0  0  0  0  0  0  0  0
   -0.2390   16.1130   -5.5410 C   0  0  2  0  0  0  0  0  0  0  0  0
   -1.4030   15.5350   -4.7090 C   0  0  0  0  0  0  0  0  0  0  0  0
   -1.6440   14.0710   -5.1250 C   0  0  0  0  0  0  0  0  0  0  0  0
    0.2030   17.4740   -5.2100 N   0  0  0  0  0  0  0  0  0  0  0  0
    1.5250   17.8050   -4.6670 C   0  0  0  0  0  0  0  0  0  0  0  0
    1.5300   19.3300   -4.8810 C   0  0  0  0  0  0  0  0  0  0  0  0
    0.0550   19.7620   -4.9170 C   0  0  0  0  0  0  0  0  0  0  0  0
   -0.6410   18.5030   -5.3560 C   0  0  0  0  0  0  0  0  0  0  0  0
   -1.7860   18.4440   -5.7790 O   0  0  0  0  0  0  0  0  0  0  0  0
   -5.5690    8.5460   -6.2560 C   0  0  0  0  0  0  0  0  0  0  0  0
   -4.4470    7.9160   -5.7470 C   0  0  0  0  0  0  0  0  0  0  0  0
   -4.5570    7.0410   -4.6920 C   0  0  0  0  0  0  0  0  0  0  0  0
   -5.7720    6.7830   -4.0940 C   0  0  0  0  0  0  0  0  0  0  0  0
   -6.8970    7.4320   -4.5880 C   0  0  0  0  0  0  0  0  0  0  0  0
   -6.7950    8.2910   -5.6630 C   0  0  0  0  0  0  0  0  0  0  0  0
   -8.5080    7.2240   -3.8010 S   0  0  0  0  0  0  0  0  0  0  0  0
   -9.2870    8.7840   -3.2820 C   0  0  0  0  0  0  0  0  0  0  0  0
   -8.1620    9.7680   -2.9200 C   0  0  0  0  0  0  0  0  0  0  0  0
   -8.4790   10.8270   -1.8930 N   0  3  2  0  0  0  0  0  0  0  0  0
   -9.9040   11.2920   -2.0860 C   0  0  0  0  0  0  0  0  0  0  0  0
  -10.2830   12.4520   -1.1550 C   0  0  0  0  0  0  0  0  0  0  0  0
   -9.3050   13.6150   -1.3860 C   0  0  2  0  0  0  0  0  0  0  0  0
   -7.8980   13.1390   -0.9680 C   0  0  0  0  0  0  0  0  0  0  0  0
   -7.4690   11.9570   -1.8690 C   0  0  0  0  0  0  0  0  0  0  0  0
   -9.7690   14.8750   -0.6290 C   0  0  0  0  0  0  0  0  0  0  0  0
   -8.8220   15.8930   -0.6870 F   0  0  0  0  0  0  0  0  0  0  0  0
   -9.9970   14.5810    0.7100 F   0  0  0  0  0  0  0  0  0  0  0  0
  -10.9600   15.3640   -1.1530 F   0  0  0  0  0  0  0  0  0  0  0  0
   -5.7720    5.8130   -2.9130 C   0  0  0  0  0  0  0  0  0  0  0  0
   -5.5340    6.4960   -1.7240 F   0  0  0  0  0  0  0  0  0  0  0  0
   -6.9980    5.1710   -2.7810 F   0  0  0  0  0  0  0  0  0  0  0  0
   -4.8070    4.8120   -3.0010 F   0  0  0  0  0  0  0  0  0  0  0  0
   -7.7110    8.9960   -8.8080 C   0  0  0  0  0  0  0  0  0  0  0  0
  -11.0640   10.5910   -8.8020 H   0  0  0  0  0  0  0  0  0  0  0  0
  -11.0290   11.2160  -10.3120 H   0  0  0  0  0  0  0  0  0  0  0  0
  -12.0810   10.0260   -9.9530 H   0  0  0  0  0  0  0  0  0  0  0  0
   -7.9670   10.3560  -11.7800 H   0  0  0  0  0  0  0  0  0  0  0  0
   -7.0110    9.1320  -11.2680 H   0  0  0  0  0  0  0  0  0  0  0  0
   -6.8630   11.8830  -10.3800 H   0  0  0  0  0  0  0  0  0  0  0  0
   -5.7010   11.0540  -11.2030 H   0  0  0  0  0  0  0  0  0  0  0  0
   -4.2510   12.9830   -8.6890 H   0  0  0  0  0  0  0  0  0  0  0  0
   -3.6570   12.0530  -10.0240 H   0  0  0  0  0  0  0  0  0  0  0  0
   -1.8930   13.1090   -9.0520 H   0  0  0  0  0  0  0  0  0  0  0  0
   -1.8280   11.4740   -8.8040 H   0  0  0  0  0  0  0  0  0  0  0  0
   -1.3930   11.9890   -6.7310 H   0  0  0  0  0  0  0  0  0  0  0  0
   -3.0440   12.2760   -6.6620 H   0  0  0  0  0  0  0  0  0  0  0  0
   -2.7010   14.4240   -6.7590 H   0  0  0  0  0  0  0  0  0  0  0  0
   -1.1530   14.5960   -8.4090 H   0  0  0  0  0  0  0  0  0  0  0  0
   -0.0120   14.1150   -7.3250 H   0  0  0  0  0  0  0  0  0  0  0  0
   -1.4660   16.6100   -7.1690 H   0  0  0  0  0  0  0  0  0  0  0  0
    0.1030   16.4750   -7.5790 H   0  0  0  0  0  0  0  0  0  0  0  0
    0.5420   15.5280   -5.3170 H   0  0  0  0  0  0  0  0  0  0  0  0
   -2.2310   16.0710   -4.8720 H   0  0  0  0  0  0  0  0  0  0  0  0
   -1.1740   15.5740   -3.7370 H   0  0  0  0  0  0  0  0  0  0  0  0
   -0.8310   13.5290   -4.9090 H   0  0  0  0  0  0  0  0  0  0  0  0
   -2.4360   13.7250   -4.6220 H   0  0  0  0  0  0  0  0  0  0  0  0
    2.2600   17.3540   -5.1740 H   0  0  0  0  0  0  0  0  0  0  0  0
    1.6760   17.5140   -3.7220 H   0  0  0  0  0  0  0  0  0  0  0  0
    1.9830   19.5590   -5.7430 H   0  0  0  0  0  0  0  0  0  0  0  0
    2.0280   19.7990   -4.1520 H   0  0  0  0  0  0  0  0  0  0  0  0
   -0.0900   20.5070   -5.5700 H   0  0  0  0  0  0  0  0  0  0  0  0
   -0.2780   20.1190   -4.0430 H   0  0  0  0  0  0  0  0  0  0  0  0
   -3.5510    8.0990   -6.1490 H   0  0  0  0  0  0  0  0  0  0  0  0
   -3.7360    6.5800   -4.3530 H   0  0  0  0  0  0  0  0  0  0  0  0
   -7.6170    8.7350   -6.0180 H   0  0  0  0  0  0  0  0  0  0  0  0
   -9.8730    8.6260   -2.4880 H   0  0  0  0  0  0  0  0  0  0  0  0
   -9.8550    9.1550   -4.0180 H   0  0  0  0  0  0  0  0  0  0  0  0
   -7.8850   10.2350   -3.7620 H   0  0  0  0  0  0  0  0  0  0  0  0
   -7.4490    9.2060   -2.5000 H   0  0  0  0  0  0  0  0  0  0  0  0
   -8.4520   10.4390   -1.0680 H   0  0  0  0  0  0  0  0  0  0  0  0
  -10.5190   10.5230   -1.9100 H   0  0  0  0  0  0  0  0  0  0  0  0
   -9.9870   11.6230   -3.0250 H   0  0  0  0  0  0  0  0  0  0  0  0
  -10.2320   12.1510   -0.2020 H   0  0  0  0  0  0  0  0  0  0  0  0
  -11.2180   12.7520   -1.3500 H   0  0  0  0  0  0  0  0  0  0  0  0
   -9.2790   13.8780   -2.3510 H   0  0  0  0  0  0  0  0  0  0  0  0
   -7.9140   12.8460   -0.0130 H   0  0  0  0  0  0  0  0  0  0  0  0
   -7.2460   13.8910   -1.0700 H   0  0  0  0  0  0  0  0  0  0  0  0
   -7.3450   12.2950   -2.8030 H   0  0  0  0  0  0  0  0  0  0  0  0
   -6.6210   11.5900   -1.4900 H   0  0  0  0  0  0  0  0  0  0  0  0
   -7.5440    8.0470   -9.0790 H   0  0  0  0  0  0  0  0  0  0  0  0
   -8.2930    9.0620   -7.9970 H   0  0  0  0  0  0  0  0  0  0  0  0
  1  2  1  0  0  0  0
  1 52  1  0  0  0  0
  1 53  1  0  0  0  0
  1 54  1  0  0  0  0
  2  3  2  0  0  0  0
  2  4  2  0  0  0  0
  2  5  1  0  0  0  0
  5  6  1  0  0  0  0
  5 51  1  0  0  0  0
  6  7  1  0  0  0  0
  6 55  1  0  0  0  0
  6 56  1  0  0  0  0
  7  8  1  0  0  0  0
  7 57  1  0  0  0  0
  7 58  1  0  0  0  0
  8  9  2  0  0  0  0
  8 12  1  0  0  0  0
  9 10  1  0  0  0  0
  9 51  1  0  0  0  0
 10 11  2  0  0  0  0
 10 28  1  0  0  0  0
 11 12  1  0  0  0  0
 12 13  1  0  0  0  0
 13 14  1  0  0  0  0
 13 59  1  0  0  0  0
 13 60  1  0  0  0  0
 14 15  1  0  0  0  0
 14 61  1  0  0  0  0
 14 62  1  0  0  0  0
 15 16  1  0  0  0  0
 15 63  1  0  0  0  0
 15 64  1  0  0  0  0
 16 17  1  0  0  0  0
 16 21  1  0  0  0  0
 16 65  1  6  0  0  0
 17 18  1  0  0  0  0
 17 66  1  0  0  0  0
 17 67  1  0  0  0  0
 18 19  1  0  0  0  0
 18 68  1  0  0  0  0
 18 69  1  0  0  0  0
 19 20  1  0  0  0  0
 19 22  1  0  0  0  0
 19 70  1  1  0  0  0
 20 21  1  0  0  0  0
 20 71  1  0  0  0  0
 20 72  1  0  0  0  0
 21 73  1  0  0  0  0
 21 74  1  0  0  0  0
 22 23  1  0  0  0  0
 22 26  1  0  0  0  0
 23 24  1  0  0  0  0
 23 75  1  0  0  0  0
 23 76  1  0  0  0  0
 24 25  1  0  0  0  0
 24 77  1  0  0  0  0
 24 78  1  0  0  0  0
 25 26  1  0  0  0  0
 25 79  1  0  0  0  0
 25 80  1  0  0  0  0
 26 27  2  0  0  0  0
 28 29  2  0  0  0  0
 28 33  1  0  0  0  0
 29 30  1  0  0  0  0
 29 81  1  0  0  0  0
 30 31  2  0  0  0  0
 30 82  1  0  0  0  0
 31 32  1  0  0  0  0
 31 47  1  0  0  0  0
 32 33  2  0  0  0  0
 32 34  1  0  0  0  0
 33 83  1  0  0  0  0
 34 35  1  0  0  0  0
 35 36  1  0  0  0  0
 35 84  1  0  0  0  0
 35 85  1  0  0  0  0
 36 37  1  0  0  0  0
 36 86  1  0  0  0  0
 36 87  1  0  0  0  0
 37 38  1  0  0  0  0
 37 42  1  0  0  0  0
 37 88  1  1  0  0  0
 38 39  1  0  0  0  0
 38 89  1  0  0  0  0
 38 90  1  0  0  0  0
 39 40  1  0  0  0  0
 39 91  1  0  0  0  0
 39 92  1  0  0  0  0
 40 41  1  0  0  0  0
 40 43  1  0  0  0  0
 40 93  1  6  0  0  0
 41 42  1  0  0  0  0
 41 94  1  0  0  0  0
 41 95  1  0  0  0  0
 42 96  1  0  0  0  0
 42 97  1  0  0  0  0
 43 44  1  0  0  0  0
 43 45  1  0  0  0  0
 43 46  1  0  0  0  0
 47 48  1  0  0  0  0
 47 49  1  0  0  0  0
 47 50  1  0  0  0  0
 51 98  1  0  0  0  0
 51 99  1  0  0  0  0
M  CHG  2  16   1  37   1
M  END
