2HHN-CatS_253.pdb
 OpenBabel12031817073D

 90 94  0  0  1  0  0  0  0  0999 V2000
  -10.8440   10.5410   -9.0920 C   0  0  0  0  0  0  0  0  0  0  0  0
   -9.8190    9.4170  -10.0820 S   0  0  0  0  0  0  0  0  0  0  0  0
  -10.0070    8.0970   -9.5760 O   0  0  0  0  0  0  0  0  0  0  0  0
  -10.1030    9.6450  -11.4600 O   0  0  0  0  0  0  0  0  0  0  0  0
   -8.2470    9.7640   -9.8410 N   0  0  0  0  0  0  0  0  0  0  0  0
   -7.3360    9.9010  -10.9980 C   0  0  0  0  0  0  0  0  0  0  0  0
   -6.0550   10.6790  -10.6170 C   0  0  0  0  0  0  0  0  0  0  0  0
   -5.5010   10.2290   -9.2780 C   0  0  0  0  0  0  0  0  0  0  0  0
   -6.1910    9.4290   -8.4630 C   0  0  0  0  0  0  0  0  0  0  0  0
   -5.3290    9.2520   -7.3570 C   0  0  0  0  0  0  0  0  0  0  0  0
   -4.2390    9.9620   -7.5640 N   0  0  0  0  0  0  0  0  0  0  0  0
   -4.3000   10.5920   -8.7610 N   0  0  0  0  0  0  0  0  0  0  0  0
   -3.3230   11.5710   -9.2560 C   0  0  0  0  0  0  0  0  0  0  0  0
   -3.3690   12.9640   -8.5990 C   0  0  2  0  0  0  0  0  0  0  0  0
   -2.7910   12.9600   -7.1660 C   0  0  0  0  0  0  0  0  0  0  0  0
   -2.2060   14.2770   -6.7170 N   0  3  0  0  0  0  0  0  0  0  0  0
   -1.6430   14.2690   -5.3630 C   0  0  0  0  0  0  0  0  0  0  0  0
   -1.2280   15.6640   -4.9210 C   0  0  0  0  0  0  0  0  0  0  0  0
   -0.2010   16.2300   -5.8860 C   0  0  0  0  0  0  0  0  0  0  0  0
   -0.7510   16.2120   -7.3060 C   0  0  0  0  0  0  0  0  0  0  0  0
   -1.2160   14.8050   -7.6790 C   0  0  0  0  0  0  0  0  0  0  0  0
   -4.7100   13.4710   -8.5900 O   0  0  0  0  0  0  0  0  0  0  0  0
   -5.5430    8.4510   -6.1630 C   0  0  0  0  0  0  0  0  0  0  0  0
   -4.4810    7.7820   -5.5830 C   0  0  0  0  0  0  0  0  0  0  0  0
   -4.6630    7.0250   -4.4520 C   0  0  0  0  0  0  0  0  0  0  0  0
   -5.9030    6.8990   -3.8610 C   0  0  0  0  0  0  0  0  0  0  0  0
   -6.9720    7.5600   -4.4520 C   0  0  0  0  0  0  0  0  0  0  0  0
   -6.7920    8.3240   -5.5840 C   0  0  0  0  0  0  0  0  0  0  0  0
   -8.6400    7.4530   -3.7880 S   0  0  0  0  0  0  0  0  0  0  0  0
   -9.1960    9.1680   -3.6120 C   0  0  0  0  0  0  0  0  0  0  0  0
   -8.2990    9.9430   -2.6230 C   0  0  0  0  0  0  0  0  0  0  0  0
   -8.0450   11.3770   -3.0160 N   0  3  1  0  0  0  0  0  0  0  0  0
   -9.2650   12.1360   -3.2940 C   0  0  0  0  0  0  0  0  0  0  0  0
  -10.0980   12.3020   -2.0260 C   0  0  0  0  0  0  0  0  0  0  0  0
   -9.3160   12.9850   -0.9150 C   0  0  2  0  0  0  0  0  0  0  0  0
   -7.9820   12.2850   -0.7280 C   0  0  0  0  0  0  0  0  0  0  0  0
   -7.2370   12.1160   -2.0460 C   0  0  0  0  0  0  0  0  0  0  0  0
   -9.9830   13.1050    0.4480 C   0  0  0  0  0  0  0  0  0  0  0  0
   -9.6190   12.4440    1.4110 O   0  0  0  0  0  0  0  0  0  0  0  0
  -10.9800   14.0010    0.5050 N   0  0  0  0  0  0  0  0  0  0  0  0
   -5.9980    6.0370   -2.6020 C   0  0  0  0  0  0  0  0  0  0  0  0
   -5.8580    6.8120   -1.4560 F   0  0  0  0  0  0  0  0  0  0  0  0
   -7.2080    5.3590   -2.4870 F   0  0  0  0  0  0  0  0  0  0  0  0
   -4.9960    5.0720   -2.5780 F   0  0  0  0  0  0  0  0  0  0  0  0
   -7.5870    8.9300   -8.8090 C   0  0  0  0  0  0  0  0  0  0  0  0
   -2.7910   13.5630   -9.1530 H   0  0  0  0  0  0  0  0  0  0  0  0
  -10.2480   11.1620   -8.5840 H   0  0  0  0  0  0  0  0  0  0  0  0
  -11.4450   11.0670   -9.6930 H   0  0  0  0  0  0  0  0  0  0  0  0
  -11.4020   10.0120   -8.4530 H   0  0  0  0  0  0  0  0  0  0  0  0
   -7.8120   10.3890  -11.7320 H   0  0  0  0  0  0  0  0  0  0  0  0
   -7.0710    8.9850  -11.3000 H   0  0  0  0  0  0  0  0  0  0  0  0
   -6.2680   11.6550  -10.5710 H   0  0  0  0  0  0  0  0  0  0  0  0
   -5.3630   10.4990  -11.3170 H   0  0  0  0  0  0  0  0  0  0  0  0
   -3.4730   11.6870  -10.2370 H   0  0  0  0  0  0  0  0  0  0  0  0
   -2.4250   11.1950   -9.0230 H   0  0  0  0  0  0  0  0  0  0  0  0
   -2.0740   12.2650   -7.1200 H   0  0  0  0  0  0  0  0  0  0  0  0
   -3.5600   12.7710   -6.5550 H   0  0  0  0  0  0  0  0  0  0  0  0
   -2.8930   14.8760   -6.7060 H   0  0  0  0  0  0  0  0  0  0  0  0
   -0.8420   13.6710   -5.3440 H   0  0  0  0  0  0  0  0  0  0  0  0
   -2.3420   13.9360   -4.7300 H   0  0  0  0  0  0  0  0  0  0  0  0
   -0.8400   15.6110   -4.0010 H   0  0  0  0  0  0  0  0  0  0  0  0
   -2.0410   16.2460   -4.9360 H   0  0  0  0  0  0  0  0  0  0  0  0
    0.6320   15.6790   -5.8410 H   0  0  0  0  0  0  0  0  0  0  0  0
   -0.0050   17.1750   -5.6270 H   0  0  0  0  0  0  0  0  0  0  0  0
   -0.0360   16.5060   -7.9420 H   0  0  0  0  0  0  0  0  0  0  0  0
   -1.5330   16.8330   -7.3570 H   0  0  0  0  0  0  0  0  0  0  0  0
   -0.4200   14.1990   -7.6990 H   0  0  0  0  0  0  0  0  0  0  0  0
   -1.6570   14.8620   -8.5760 H   0  0  0  0  0  0  0  0  0  0  0  0
   -4.7870   14.3130   -9.1340 H   0  0  0  0  0  0  0  0  0  0  0  0
   -3.5690    7.8520   -5.9910 H   0  0  0  0  0  0  0  0  0  0  0  0
   -3.8800    6.5530   -4.0480 H   0  0  0  0  0  0  0  0  0  0  0  0
   -7.5760    8.7920   -5.9930 H   0  0  0  0  0  0  0  0  0  0  0  0
  -10.1380    9.1740   -3.2760 H   0  0  0  0  0  0  0  0  0  0  0  0
   -9.1400    9.6120   -4.5060 H   0  0  0  0  0  0  0  0  0  0  0  0
   -7.4180    9.4730   -2.5610 H   0  0  0  0  0  0  0  0  0  0  0  0
   -8.7860    9.9660   -1.7500 H   0  0  0  0  0  0  0  0  0  0  0  0
   -7.5700   11.3470   -3.7920 H   0  0  0  0  0  0  0  0  0  0  0  0
   -9.7950   11.6480   -3.9890 H   0  0  0  0  0  0  0  0  0  0  0  0
   -8.9880   13.0430   -3.6120 H   0  0  0  0  0  0  0  0  0  0  0  0
  -10.3890   11.3970   -1.7140 H   0  0  0  0  0  0  0  0  0  0  0  0
  -10.8790   12.8830   -2.2520 H   0  0  0  0  0  0  0  0  0  0  0  0
   -9.2290   13.9330   -1.2210 H   0  0  0  0  0  0  0  0  0  0  0  0
   -8.1350   11.3810   -0.3300 H   0  0  0  0  0  0  0  0  0  0  0  0
   -7.4110   12.8350   -0.1180 H   0  0  0  0  0  0  0  0  0  0  0  0
   -6.3860   11.6220   -1.8730 H   0  0  0  0  0  0  0  0  0  0  0  0
   -7.0660   13.0300   -2.4140 H   0  0  0  0  0  0  0  0  0  0  0  0
  -11.1070   14.5860   -0.1380 H   0  0  0  0  0  0  0  0  0  0  0  0
  -11.5140   14.0080    1.2040 H   0  0  0  0  0  0  0  0  0  0  0  0
   -8.1460    8.9370   -7.9810 H   0  0  0  0  0  0  0  0  0  0  0  0
   -7.4960    8.0060   -9.1800 H   0  0  0  0  0  0  0  0  0  0  0  0
  1  2  1  0  0  0  0
  1 47  1  0  0  0  0
  1 48  1  0  0  0  0
  1 49  1  0  0  0  0
  2  3  2  0  0  0  0
  2  4  2  0  0  0  0
  2  5  1  0  0  0  0
  5  6  1  0  0  0  0
  5 45  1  0  0  0  0
  6  7  1  0  0  0  0
  6 50  1  0  0  0  0
  6 51  1  0  0  0  0
  7  8  1  0  0  0  0
  7 52  1  0  0  0  0
  7 53  1  0  0  0  0
  8  9  2  0  0  0  0
  8 12  1  0  0  0  0
  9 10  1  0  0  0  0
  9 45  1  0  0  0  0
 10 11  2  0  0  0  0
 10 23  1  0  0  0  0
 11 12  1  0  0  0  0
 12 13  1  0  0  0  0
 13 14  1  0  0  0  0
 13 54  1  0  0  0  0
 13 55  1  0  0  0  0
 14 15  1  0  0  0  0
 14 22  1  0  0  0  0
 14 46  1  6  0  0  0
 15 16  1  0  0  0  0
 15 56  1  0  0  0  0
 15 57  1  0  0  0  0
 16 17  1  0  0  0  0
 16 21  1  0  0  0  0
 16 58  1  0  0  0  0
 17 18  1  0  0  0  0
 17 59  1  0  0  0  0
 17 60  1  0  0  0  0
 18 19  1  0  0  0  0
 18 61  1  0  0  0  0
 18 62  1  0  0  0  0
 19 20  1  0  0  0  0
 19 63  1  0  0  0  0
 19 64  1  0  0  0  0
 20 21  1  0  0  0  0
 20 65  1  0  0  0  0
 20 66  1  0  0  0  0
 21 67  1  0  0  0  0
 21 68  1  0  0  0  0
 22 69  1  0  0  0  0
 23 24  2  0  0  0  0
 23 28  1  0  0  0  0
 24 25  1  0  0  0  0
 24 70  1  0  0  0  0
 25 26  2  0  0  0  0
 25 71  1  0  0  0  0
 26 27  1  0  0  0  0
 26 41  1  0  0  0  0
 27 28  2  0  0  0  0
 27 29  1  0  0  0  0
 28 72  1  0  0  0  0
 29 30  1  0  0  0  0
 30 31  1  0  0  0  0
 30 73  1  0  0  0  0
 30 74  1  0  0  0  0
 31 32  1  0  0  0  0
 31 75  1  0  0  0  0
 31 76  1  0  0  0  0
 32 33  1  0  0  0  0
 32 37  1  0  0  0  0
 32 77  1  6  0  0  0
 33 34  1  0  0  0  0
 33 78  1  0  0  0  0
 33 79  1  0  0  0  0
 34 35  1  0  0  0  0
 34 80  1  0  0  0  0
 34 81  1  0  0  0  0
 35 36  1  0  0  0  0
 35 38  1  0  0  0  0
 35 82  1  6  0  0  0
 36 37  1  0  0  0  0
 36 83  1  0  0  0  0
 36 84  1  0  0  0  0
 37 85  1  0  0  0  0
 37 86  1  0  0  0  0
 38 39  2  0  0  0  0
 38 40  1  0  0  0  0
 40 87  1  0  0  0  0
 40 88  1  0  0  0  0
 41 42  1  0  0  0  0
 41 43  1  0  0  0  0
 41 44  1  0  0  0  0
 45 89  1  0  0  0  0
 45 90  1  0  0  0  0
M  CHG  2  16   1  32   1
M  END
