2HHN-CatS_I001.pdb
 OpenBabel12031817073D

 85 89  0  0  1  0  0  0  0  0999 V2000
  -10.6470   11.2280  -10.4540 C   0  0  0  0  0  0  0  0  0  0  0  0
  -10.0000   10.7590   -9.1680 C   0  0  0  0  0  0  0  0  0  0  0  0
  -10.6950   10.4480   -8.2110 O   0  0  0  0  0  0  0  0  0  0  0  0
   -8.6510   10.6870   -9.1880 N   0  0  0  0  0  0  0  0  0  0  0  0
   -7.8430   11.1540  -10.3440 C   0  0  0  0  0  0  0  0  0  0  0  0
   -6.4130   11.6320  -10.0070 C   0  0  0  0  0  0  0  0  0  0  0  0
   -5.7540   10.7540   -8.9600 C   0  0  0  0  0  0  0  0  0  0  0  0
   -6.4680   10.0570   -8.0740 C   0  0  0  0  0  0  0  0  0  0  0  0
   -5.4830    9.4040   -7.2960 C   0  0  0  0  0  0  0  0  0  0  0  0
   -4.2990    9.7440   -7.7590 N   0  0  0  0  0  0  0  0  0  0  0  0
   -4.4150   10.5920   -8.8010 N   0  0  0  0  0  0  0  0  0  0  0  0
   -3.2760   11.1720   -9.5280 C   0  0  0  0  0  0  0  0  0  0  0  0
   -2.9280   12.6090   -9.0970 C   0  0  2  0  0  0  0  0  0  0  0  0
   -2.2830   12.5980   -7.6960 C   0  0  0  0  0  0  0  0  0  0  0  0
   -2.1000   13.9730   -7.1030 N   0  3  0  0  0  0  0  0  0  0  0  0
   -1.8160   13.9030   -5.6220 C   0  0  0  0  0  0  0  0  0  0  0  0
   -1.7120   15.3110   -5.0030 C   0  0  0  0  0  0  0  0  0  0  0  0
   -0.6260   16.1240   -5.7320 C   0  0  0  0  0  0  0  0  0  0  0  0
   -0.9720   16.2230   -7.2290 C   0  0  0  0  0  0  0  0  0  0  0  0
   -1.0840   14.8120   -7.8420 C   0  0  0  0  0  0  0  0  0  0  0  0
   -4.1050   13.4300   -9.1000 O   0  0  0  0  0  0  0  0  0  0  0  0
   -5.6370    8.5030   -6.1660 C   0  0  0  0  0  0  0  0  0  0  0  0
   -4.5240    7.8350   -5.6910 C   0  0  0  0  0  0  0  0  0  0  0  0
   -4.6220    6.9750   -4.6240 C   0  0  0  0  0  0  0  0  0  0  0  0
   -5.8280    6.7550   -3.9910 C   0  0  0  0  0  0  0  0  0  0  0  0
   -6.9440    7.4330   -4.4620 C   0  0  0  0  0  0  0  0  0  0  0  0
   -6.8500    8.2870   -5.5360 C   0  0  0  0  0  0  0  0  0  0  0  0
   -8.5600    7.2300   -3.6940 S   0  0  0  0  0  0  0  0  0  0  0  0
   -9.2500    8.8300   -3.1800 C   0  0  0  0  0  0  0  0  0  0  0  0
   -8.1780    9.8730   -2.8050 C   0  0  0  0  0  0  0  0  0  0  0  0
   -8.6800   10.9460   -1.8730 N   0  3  1  0  0  0  0  0  0  0  0  0
   -7.5700   11.8930   -1.4930 C   0  0  0  0  0  0  0  0  0  0  0  0
   -8.0450   12.9290   -0.4530 C   0  0  0  0  0  0  0  0  0  0  0  0
   -9.2750   13.6910   -0.9850 C   0  0  2  0  0  0  0  0  0  0  0  0
  -10.4000   12.6980   -1.3350 C   0  0  0  0  0  0  0  0  0  0  0  0
   -9.9050   11.6740   -2.3760 C   0  0  0  0  0  0  0  0  0  0  0  0
   -8.9210   14.4020   -2.1250 F   0  0  0  0  0  0  0  0  0  0  0  0
   -5.8320    5.7820   -2.8130 C   0  0  0  0  0  0  0  0  0  0  0  0
   -6.2110    6.4300   -1.6440 F   0  0  0  0  0  0  0  0  0  0  0  0
   -6.7320    4.7430   -3.0250 F   0  0  0  0  0  0  0  0  0  0  0  0
   -4.5940    5.1930   -2.5680 F   0  0  0  0  0  0  0  0  0  0  0  0
   -7.9890   10.0490   -8.0270 C   0  0  0  0  0  0  0  0  0  0  0  0
  -10.5550   12.4200  -10.5640 H   0  0  0  0  0  0  0  0  0  0  0  0
   -2.1440   13.0350   -9.8980 H   0  0  0  0  0  0  0  0  0  0  0  0
   -8.3570   12.0720  -10.9180 H   0  0  0  0  0  0  0  0  0  0  0  0
   -7.7500   10.2330  -11.1070 H   0  0  0  0  0  0  0  0  0  0  0  0
   -6.4670   12.7460   -9.5640 H   0  0  0  0  0  0  0  0  0  0  0  0
   -5.7700   11.6460  -11.0190 H   0  0  0  0  0  0  0  0  0  0  0  0
   -3.5100   11.1680  -10.7040 H   0  0  0  0  0  0  0  0  0  0  0  0
   -2.3140   10.4810   -9.3390 H   0  0  0  0  0  0  0  0  0  0  0  0
   -1.2200   12.0440   -7.7490 H   0  0  0  0  0  0  0  0  0  0  0  0
   -3.0120   11.9610   -6.9870 H   0  0  0  0  0  0  0  0  0  0  0  0
   -2.9030   14.3970   -7.1890 H   0  0  0  0  0  0  0  0  0  0  0  0
   -0.7720   13.3330   -5.4590 H   0  0  0  0  0  0  0  0  0  0  0  0
   -2.6810   13.3000   -5.0490 H   0  0  0  0  0  0  0  0  0  0  0  0
   -1.4300   15.2180   -3.8400 H   0  0  0  0  0  0  0  0  0  0  0  0
   -2.7670   15.8720   -5.1140 H   0  0  0  0  0  0  0  0  0  0  0  0
    0.4340   15.5760   -5.6040 H   0  0  0  0  0  0  0  0  0  0  0  0
   -0.5650   17.2260   -5.2610 H   0  0  0  0  0  0  0  0  0  0  0  0
   -0.1140   16.8390   -7.7990 H   0  0  0  0  0  0  0  0  0  0  0  0
   -2.0200   16.7930   -7.3550 H   0  0  0  0  0  0  0  0  0  0  0  0
   -0.0140   14.2730   -7.7760 H   0  0  0  0  0  0  0  0  0  0  0  0
   -1.3860   14.9450   -8.9950 H   0  0  0  0  0  0  0  0  0  0  0  0
   -4.5280   13.4590  -10.0120 H   0  0  0  0  0  0  0  0  0  0  0  0
   -3.6370    7.9780   -6.1300 H   0  0  0  0  0  0  0  0  0  0  0  0
   -3.8020    6.5010   -4.3040 H   0  0  0  0  0  0  0  0  0  0  0  0
   -7.6670    8.7640   -5.8590 H   0  0  0  0  0  0  0  0  0  0  0  0
   -9.9610    8.6390   -2.2320 H   0  0  0  0  0  0  0  0  0  0  0  0
   -9.9100    9.2630   -4.0830 H   0  0  0  0  0  0  0  0  0  0  0  0
   -7.7760   10.3860   -3.8140 H   0  0  0  0  0  0  0  0  0  0  0  0
   -7.2620    9.2990   -2.2820 H   0  0  0  0  0  0  0  0  0  0  0  0
   -8.9320   10.5190   -1.1070 H   0  0  0  0  0  0  0  0  0  0  0  0
   -7.2070   12.4720   -2.4790 H   0  0  0  0  0  0  0  0  0  0  0  0
   -6.6400   11.2820   -1.0400 H   0  0  0  0  0  0  0  0  0  0  0  0
   -7.1590   13.7060   -0.2290 H   0  0  0  0  0  0  0  0  0  0  0  0
   -8.3420   12.3600    0.5610 H   0  0  0  0  0  0  0  0  0  0  0  0
   -9.6630   14.4550   -0.1460 H   0  0  0  0  0  0  0  0  0  0  0  0
  -11.3420   13.2970   -1.7750 H   0  0  0  0  0  0  0  0  0  0  0  0
  -10.7310   12.1160   -0.3390 H   0  0  0  0  0  0  0  0  0  0  0  0
   -9.6320   12.2430   -3.3970 H   0  0  0  0  0  0  0  0  0  0  0  0
  -10.8020   10.9040   -2.5860 H   0  0  0  0  0  0  0  0  0  0  0  0
   -8.3470   10.6060   -7.0260 H   0  0  0  0  0  0  0  0  0  0  0  0
   -8.3590    8.9080   -7.9880 H   0  0  0  0  0  0  0  0  0  0  0  0
  -10.1760   10.6680  -11.4050 H   0  0  0  0  0  0  0  0  0  0  0  0
  -11.8130   10.9520  -10.4030 H   0  0  0  0  0  0  0  0  0  0  0  0
  1  2  1  0  0  0  0
  1 43  1  0  0  0  0
  1 84  1  0  0  0  0
  1 85  1  0  0  0  0
  2  3  2  0  0  0  0
  2  4  1  0  0  0  0
  4  5  1  0  0  0  0
  4 42  1  0  0  0  0
  5  6  1  0  0  0  0
  5 45  1  0  0  0  0
  5 46  1  0  0  0  0
  6  7  1  0  0  0  0
  6 47  1  0  0  0  0
  6 48  1  0  0  0  0
  7  8  2  0  0  0  0
  7 11  1  0  0  0  0
  8  9  1  0  0  0  0
  8 42  1  0  0  0  0
  9 10  2  0  0  0  0
  9 22  1  0  0  0  0
 10 11  1  0  0  0  0
 11 12  1  0  0  0  0
 12 13  1  0  0  0  0
 12 49  1  0  0  0  0
 12 50  1  0  0  0  0
 13 14  1  0  0  0  0
 13 21  1  0  0  0  0
 13 44  1  6  0  0  0
 14 15  1  0  0  0  0
 14 51  1  0  0  0  0
 14 52  1  0  0  0  0
 15 16  1  0  0  0  0
 15 20  1  0  0  0  0
 15 53  1  0  0  0  0
 16 17  1  0  0  0  0
 16 54  1  0  0  0  0
 16 55  1  0  0  0  0
 17 18  1  0  0  0  0
 17 56  1  0  0  0  0
 17 57  1  0  0  0  0
 18 19  1  0  0  0  0
 18 58  1  0  0  0  0
 18 59  1  0  0  0  0
 19 20  1  0  0  0  0
 19 60  1  0  0  0  0
 19 61  1  0  0  0  0
 20 62  1  0  0  0  0
 20 63  1  0  0  0  0
 21 64  1  0  0  0  0
 22 23  2  0  0  0  0
 22 27  1  0  0  0  0
 23 24  1  0  0  0  0
 23 65  1  0  0  0  0
 24 25  2  0  0  0  0
 24 66  1  0  0  0  0
 25 26  1  0  0  0  0
 25 38  1  0  0  0  0
 26 27  2  0  0  0  0
 26 28  1  0  0  0  0
 27 67  1  0  0  0  0
 28 29  1  0  0  0  0
 29 30  1  0  0  0  0
 29 68  1  0  0  0  0
 29 69  1  0  0  0  0
 30 31  1  0  0  0  0
 30 70  1  0  0  0  0
 30 71  1  0  0  0  0
 31 32  1  0  0  0  0
 31 36  1  0  0  0  0
 31 72  1  1  0  0  0
 32 33  1  0  0  0  0
 32 73  1  0  0  0  0
 32 74  1  0  0  0  0
 33 34  1  0  0  0  0
 33 75  1  0  0  0  0
 33 76  1  0  0  0  0
 34 35  1  0  0  0  0
 34 37  1  0  0  0  0
 34 77  1  1  0  0  0
 35 36  1  0  0  0  0
 35 78  1  0  0  0  0
 35 79  1  0  0  0  0
 36 80  1  0  0  0  0
 36 81  1  0  0  0  0
 38 39  1  0  0  0  0
 38 40  1  0  0  0  0
 38 41  1  0  0  0  0
 42 82  1  0  0  0  0
 42 83  1  0  0  0  0
M  CHG  2  15   1  31   1
M  END
