2HHN-CatS_184.pdb
 OpenBabel12031817073D

 95 99  0  0  1  0  0  0  0  0999 V2000
   -9.9750   12.9400    0.5010 C   0  0  0  0  0  0  0  0  0  0  0  0
   -9.2120   13.0160   -0.8320 C   0  0  2  0  0  0  0  0  0  0  0  0
  -10.0160   12.3830   -1.9580 C   0  0  0  0  0  0  0  0  0  0  0  0
   -9.1960   12.2470   -3.2390 C   0  0  0  0  0  0  0  0  0  0  0  0
   -7.9860   11.4600   -2.9980 N   0  3  1  0  0  0  0  0  0  0  0  0
   -7.1580   12.1530   -2.0100 C   0  0  0  0  0  0  0  0  0  0  0  0
   -7.8890   12.2890   -0.6810 C   0  0  0  0  0  0  0  0  0  0  0  0
   -8.2830   10.0250   -2.6390 C   0  0  0  0  0  0  0  0  0  0  0  0
   -9.2460    9.2840   -3.5890 C   0  0  0  0  0  0  0  0  0  0  0  0
   -8.6210    7.5890   -3.7080 S   0  0  0  0  0  0  0  0  0  0  0  0
   -6.9600    7.6300   -4.3900 C   0  0  0  0  0  0  0  0  0  0  0  0
   -6.7550    8.4060   -5.5070 C   0  0  0  0  0  0  0  0  0  0  0  0
   -5.5190    8.4500   -6.1230 C   0  0  0  0  0  0  0  0  0  0  0  0
   -4.4870    7.7050   -5.5750 C   0  0  0  0  0  0  0  0  0  0  0  0
   -4.6940    6.9420   -4.4500 C   0  0  0  0  0  0  0  0  0  0  0  0
   -5.9280    6.8850   -3.8360 C   0  0  0  0  0  0  0  0  0  0  0  0
   -6.0520    5.9950   -2.6010 C   0  0  0  0  0  0  0  0  0  0  0  0
   -7.2750    5.3340   -2.5790 F   0  0  0  0  0  0  0  0  0  0  0  0
   -5.9540    6.6930   -1.4000 F   0  0  0  0  0  0  0  0  0  0  0  0
   -5.0560    5.0270   -2.5860 F   0  0  0  0  0  0  0  0  0  0  0  0
   -5.3540    9.2690   -7.3120 C   0  0  0  0  0  0  0  0  0  0  0  0
   -6.2750    9.5410   -8.3540 C   0  0  0  0  0  0  0  0  0  0  0  0
   -5.6020   10.3740   -9.1510 C   0  0  0  0  0  0  0  0  0  0  0  0
   -4.3480   10.6310   -8.7060 N   0  0  0  0  0  0  0  0  0  0  0  0
   -4.2460    9.9360   -7.5540 N   0  0  0  0  0  0  0  0  0  0  0  0
   -3.3080   11.5040   -9.2640 C   0  0  0  0  0  0  0  0  0  0  0  0
   -3.2940   12.9370   -8.7020 C   0  0  2  0  0  0  0  0  0  0  0  0
   -2.6970   12.9150   -7.2780 C   0  0  0  0  0  0  0  0  0  0  0  0
   -2.1880   14.2500   -6.7940 N   0  3  0  0  0  0  0  0  0  0  0  0
   -1.1730   14.8300   -7.7460 C   0  0  0  0  0  0  0  0  0  0  0  0
   -0.7330   16.2440   -7.3100 C   0  0  0  0  0  0  0  0  0  0  0  0
   -0.2260   16.2910   -5.8510 C   0  0  0  0  0  0  0  0  0  0  0  0
   -1.2360   15.6150   -4.8940 C   0  0  0  0  0  0  0  0  0  0  0  0
   -1.6890   14.2170   -5.3700 C   0  0  0  0  0  0  0  0  0  0  0  0
    1.1770   15.6620   -5.7290 C   0  0  0  0  0  0  0  0  0  0  0  0
   -0.0820   17.7670   -5.4440 C   0  0  0  0  0  0  0  0  0  0  0  0
   -4.6330   13.4540   -8.6730 O   0  0  0  0  0  0  0  0  0  0  0  0
   -6.2180   10.9630  -10.4060 C   0  0  0  0  0  0  0  0  0  0  0  0
   -7.7580   10.8370  -10.3660 C   0  0  0  0  0  0  0  0  0  0  0  0
   -8.1850    9.4680  -10.0090 N   0  0  0  0  0  0  0  0  0  0  0  0
   -7.7200    9.1450   -8.6390 C   0  0  0  0  0  0  0  0  0  0  0  0
   -9.7080    9.0470  -10.4020 S   0  0  0  0  0  0  0  0  0  0  0  0
   -9.8790    7.6810  -10.0290 O   0  0  0  0  0  0  0  0  0  0  0  0
   -9.8850    9.3930  -11.7740 O   0  0  0  0  0  0  0  0  0  0  0  0
  -10.8520   10.0530   -9.4180 C   0  0  0  0  0  0  0  0  0  0  0  0
   -2.7350   13.5280   -9.2840 H   0  0  0  0  0  0  0  0  0  0  0  0
  -10.8660   12.5150    0.3430 H   0  0  0  0  0  0  0  0  0  0  0  0
   -9.4550   12.3960    1.1590 H   0  0  0  0  0  0  0  0  0  0  0  0
  -10.1020   13.8630    0.8690 H   0  0  0  0  0  0  0  0  0  0  0  0
   -9.0340   13.9720   -1.0690 H   0  0  0  0  0  0  0  0  0  0  0  0
  -10.8170   12.9530   -2.1390 H   0  0  0  0  0  0  0  0  0  0  0  0
  -10.2750   11.4640   -1.6620 H   0  0  0  0  0  0  0  0  0  0  0  0
   -8.9470   13.1620   -3.5610 H   0  0  0  0  0  0  0  0  0  0  0  0
   -9.7590   11.7680   -3.9120 H   0  0  0  0  0  0  0  0  0  0  0  0
   -7.5360   11.4450   -3.7900 H   0  0  0  0  0  0  0  0  0  0  0  0
   -6.9310   13.0590   -2.3680 H   0  0  0  0  0  0  0  0  0  0  0  0
   -6.3470   11.5880   -1.8630 H   0  0  0  0  0  0  0  0  0  0  0  0
   -7.3150   12.8010   -0.0400 H   0  0  0  0  0  0  0  0  0  0  0  0
   -8.0760   11.3760   -0.3200 H   0  0  0  0  0  0  0  0  0  0  0  0
   -8.6810   10.0120   -1.7220 H   0  0  0  0  0  0  0  0  0  0  0  0
   -7.4110    9.5420   -2.7090 H   0  0  0  0  0  0  0  0  0  0  0  0
   -9.2510    9.7180   -4.4900 H   0  0  0  0  0  0  0  0  0  0  0  0
  -10.1860    9.3050   -3.2470 H   0  0  0  0  0  0  0  0  0  0  0  0
   -7.5110    8.9470   -5.8770 H   0  0  0  0  0  0  0  0  0  0  0  0
   -3.5830    7.7240   -6.0020 H   0  0  0  0  0  0  0  0  0  0  0  0
   -3.9340    6.4170   -4.0690 H   0  0  0  0  0  0  0  0  0  0  0  0
   -3.4430   11.5580  -10.2540 H   0  0  0  0  0  0  0  0  0  0  0  0
   -2.4330   11.0960   -9.0080 H   0  0  0  0  0  0  0  0  0  0  0  0
   -1.9360   12.2650   -7.2650 H   0  0  0  0  0  0  0  0  0  0  0  0
   -3.4400   12.6550   -6.6610 H   0  0  0  0  0  0  0  0  0  0  0  0
   -2.8990   14.8220   -6.8090 H   0  0  0  0  0  0  0  0  0  0  0  0
   -1.5740   14.8790   -8.6610 H   0  0  0  0  0  0  0  0  0  0  0  0
   -0.3670   14.2370   -7.7470 H   0  0  0  0  0  0  0  0  0  0  0  0
   -1.5120   16.8630   -7.4000 H   0  0  0  0  0  0  0  0  0  0  0  0
    0.0270   16.5170   -7.9000 H   0  0  0  0  0  0  0  0  0  0  0  0
   -2.0420   16.2020   -4.8150 H   0  0  0  0  0  0  0  0  0  0  0  0
   -0.7750   15.4930   -4.0160 H   0  0  0  0  0  0  0  0  0  0  0  0
   -2.4230   13.8920   -4.7750 H   0  0  0  0  0  0  0  0  0  0  0  0
   -0.9010   13.6010   -5.3300 H   0  0  0  0  0  0  0  0  0  0  0  0
    1.8220   16.3620   -5.4200 H   0  0  0  0  0  0  0  0  0  0  0  0
    1.1550   14.9110   -5.0700 H   0  0  0  0  0  0  0  0  0  0  0  0
    1.4660   15.3060   -6.6180 H   0  0  0  0  0  0  0  0  0  0  0  0
    0.8720   17.9480   -5.2060 H   0  0  0  0  0  0  0  0  0  0  0  0
   -0.3570   18.3550   -6.2050 H   0  0  0  0  0  0  0  0  0  0  0  0
   -0.6690   17.9590   -4.6570 H   0  0  0  0  0  0  0  0  0  0  0  0
   -4.8980   13.8480   -9.5600 H   0  0  0  0  0  0  0  0  0  0  0  0
   -5.8670   10.4760  -11.2070 H   0  0  0  0  0  0  0  0  0  0  0  0
   -5.9750   11.9320  -10.4620 H   0  0  0  0  0  0  0  0  0  0  0  0
   -8.1280   11.0700  -11.2640 H   0  0  0  0  0  0  0  0  0  0  0  0
   -8.1020   11.4610   -9.6640 H   0  0  0  0  0  0  0  0  0  0  0  0
   -7.8100    8.1580   -8.5020 H   0  0  0  0  0  0  0  0  0  0  0  0
   -8.2900    9.6760   -8.0120 H   0  0  0  0  0  0  0  0  0  0  0  0
  -11.3760   10.6450  -10.0310 H   0  0  0  0  0  0  0  0  0  0  0  0
  -11.4760    9.4580   -8.9110 H   0  0  0  0  0  0  0  0  0  0  0  0
  -10.3370   10.6120   -8.7690 H   0  0  0  0  0  0  0  0  0  0  0  0
  1  2  1  0  0  0  0
  1 47  1  0  0  0  0
  1 48  1  0  0  0  0
  1 49  1  0  0  0  0
  2  3  1  0  0  0  0
  2  7  1  0  0  0  0
  2 50  1  6  0  0  0
  3  4  1  0  0  0  0
  3 51  1  0  0  0  0
  3 52  1  0  0  0  0
  4  5  1  0  0  0  0
  4 53  1  0  0  0  0
  4 54  1  0  0  0  0
  5  6  1  0  0  0  0
  5  8  1  0  0  0  0
  5 55  1  6  0  0  0
  6  7  1  0  0  0  0
  6 56  1  0  0  0  0
  6 57  1  0  0  0  0
  7 58  1  0  0  0  0
  7 59  1  0  0  0  0
  8  9  1  0  0  0  0
  8 60  1  0  0  0  0
  8 61  1  0  0  0  0
  9 10  1  0  0  0  0
  9 62  1  0  0  0  0
  9 63  1  0  0  0  0
 10 11  1  0  0  0  0
 11 12  2  0  0  0  0
 11 16  1  0  0  0  0
 12 13  1  0  0  0  0
 12 64  1  0  0  0  0
 13 14  2  0  0  0  0
 13 21  1  0  0  0  0
 14 15  1  0  0  0  0
 14 65  1  0  0  0  0
 15 16  2  0  0  0  0
 15 66  1  0  0  0  0
 16 17  1  0  0  0  0
 17 18  1  0  0  0  0
 17 19  1  0  0  0  0
 17 20  1  0  0  0  0
 21 22  1  0  0  0  0
 21 25  2  0  0  0  0
 22 23  2  0  0  0  0
 22 41  1  0  0  0  0
 23 24  1  0  0  0  0
 23 38  1  0  0  0  0
 24 25  1  0  0  0  0
 24 26  1  0  0  0  0
 26 27  1  0  0  0  0
 26 67  1  0  0  0  0
 26 68  1  0  0  0  0
 27 28  1  0  0  0  0
 27 37  1  0  0  0  0
 27 46  1  6  0  0  0
 28 29  1  0  0  0  0
 28 69  1  0  0  0  0
 28 70  1  0  0  0  0
 29 30  1  0  0  0  0
 29 34  1  0  0  0  0
 29 71  1  0  0  0  0
 30 31  1  0  0  0  0
 30 72  1  0  0  0  0
 30 73  1  0  0  0  0
 31 32  1  0  0  0  0
 31 74  1  0  0  0  0
 31 75  1  0  0  0  0
 32 33  1  0  0  0  0
 32 35  1  0  0  0  0
 32 36  1  0  0  0  0
 33 34  1  0  0  0  0
 33 76  1  0  0  0  0
 33 77  1  0  0  0  0
 34 78  1  0  0  0  0
 34 79  1  0  0  0  0
 35 80  1  0  0  0  0
 35 81  1  0  0  0  0
 35 82  1  0  0  0  0
 36 83  1  0  0  0  0
 36 84  1  0  0  0  0
 36 85  1  0  0  0  0
 37 86  1  0  0  0  0
 38 39  1  0  0  0  0
 38 87  1  0  0  0  0
 38 88  1  0  0  0  0
 39 40  1  0  0  0  0
 39 89  1  0  0  0  0
 39 90  1  0  0  0  0
 40 41  1  0  0  0  0
 40 42  1  0  0  0  0
 41 91  1  0  0  0  0
 41 92  1  0  0  0  0
 42 43  2  0  0  0  0
 42 44  2  0  0  0  0
 42 45  1  0  0  0  0
 45 93  1  0  0  0  0
 45 94  1  0  0  0  0
 45 95  1  0  0  0  0
M  CHG  2   5   1  29   1
M  END
