2HHN-CatS_195.pdb
 OpenBabel12031817073D

 93 97  0  0  1  0  0  0  0  0999 V2000
   -9.9450   12.9710    0.5030 C   0  0  0  0  0  0  0  0  0  0  0  0
   -9.2040   12.9850   -0.8440 C   0  0  2  0  0  0  0  0  0  0  0  0
  -10.0680   12.3370   -1.9160 C   0  0  0  0  0  0  0  0  0  0  0  0
   -9.3100   12.1530   -3.2270 C   0  0  0  0  0  0  0  0  0  0  0  0
   -8.1030   11.3510   -3.0180 N   0  3  1  0  0  0  0  0  0  0  0  0
   -7.2200   12.0540   -2.0890 C   0  0  0  0  0  0  0  0  0  0  0  0
   -7.8870   12.2390   -0.7320 C   0  0  0  0  0  0  0  0  0  0  0  0
   -8.3970    9.9330   -2.5980 C   0  0  0  0  0  0  0  0  0  0  0  0
   -9.3520    9.1540   -3.5310 C   0  0  0  0  0  0  0  0  0  0  0  0
   -8.6610    7.4920   -3.7110 S   0  0  0  0  0  0  0  0  0  0  0  0
   -7.0050    7.6090   -4.3980 C   0  0  0  0  0  0  0  0  0  0  0  0
   -6.8340    8.4050   -5.5090 C   0  0  0  0  0  0  0  0  0  0  0  0
   -5.5950    8.5150   -6.1110 C   0  0  0  0  0  0  0  0  0  0  0  0
   -4.5300    7.8170   -5.5670 C   0  0  0  0  0  0  0  0  0  0  0  0
   -4.7080    7.0280   -4.4550 C   0  0  0  0  0  0  0  0  0  0  0  0
   -5.9430    6.9020   -3.8520 C   0  0  0  0  0  0  0  0  0  0  0  0
   -6.0430    5.9840   -2.6320 C   0  0  0  0  0  0  0  0  0  0  0  0
   -5.0670    4.9940   -2.5940 F   0  0  0  0  0  0  0  0  0  0  0  0
   -7.2670    5.3270   -2.5890 F   0  0  0  0  0  0  0  0  0  0  0  0
   -5.9270    6.7170   -1.4560 F   0  0  0  0  0  0  0  0  0  0  0  0
   -5.3970    9.3330   -7.2950 C   0  0  0  0  0  0  0  0  0  0  0  0
   -6.2930    9.5560   -8.3630 C   0  0  0  0  0  0  0  0  0  0  0  0
   -5.5970   10.3250   -9.2000 C   0  0  0  0  0  0  0  0  0  0  0  0
   -4.3630   10.6380   -8.7280 N   0  0  0  0  0  0  0  0  0  0  0  0
   -4.2840    9.9930   -7.5410 N   0  0  0  0  0  0  0  0  0  0  0  0
   -3.2890   11.4630   -9.3060 C   0  0  0  0  0  0  0  0  0  0  0  0
   -3.0900   12.8960   -8.7470 C   0  0  2  0  0  0  0  0  0  0  0  0
   -2.5980   12.9600   -7.2770 C   0  0  0  0  0  0  0  0  0  0  0  0
   -2.0150   14.2480   -6.7110 N   0  3  1  0  0  0  0  0  0  0  0  0
   -1.4790   14.3210   -5.3480 C   0  0  0  0  0  0  0  0  0  0  0  0
   -1.2310   15.7600   -4.9200 C   0  0  0  0  0  0  0  0  0  0  0  0
   -0.2560   16.4240   -5.8780 C   0  0  2  0  0  0  0  0  0  0  0  0
   -0.7750   16.3250   -7.3060 C   0  0  0  0  0  0  0  0  0  0  0  0
   -1.0730   14.8700   -7.6650 C   0  0  0  0  0  0  0  0  0  0  0  0
    1.0810   15.7160   -5.8000 C   0  0  0  0  0  0  0  0  0  0  0  0
    1.6760   15.2830   -6.7780 O   0  0  0  0  0  0  0  0  0  0  0  0
    1.5410   15.6230   -4.5450 N   0  0  0  0  0  0  0  0  0  0  0  0
   -4.2570   13.7040   -8.9580 O   0  0  0  0  0  0  0  0  0  0  0  0
   -6.1830   10.7760  -10.5220 C   0  0  0  0  0  0  0  0  0  0  0  0
   -7.7190   10.6350  -10.5290 C   0  0  0  0  0  0  0  0  0  0  0  0
   -8.1980    9.3290  -10.0270 N   0  0  0  0  0  0  0  0  0  0  0  0
   -7.7280    9.1270   -8.6350 C   0  0  0  0  0  0  0  0  0  0  0  0
   -9.7800    9.0530  -10.2660 S   0  0  0  0  0  0  0  0  0  0  0  0
  -10.0730    9.3860  -11.6220 O   0  0  0  0  0  0  0  0  0  0  0  0
  -10.0810    7.7260   -9.8320 O   0  0  0  0  0  0  0  0  0  0  0  0
  -10.6400   10.2360   -9.1940 C   0  0  0  0  0  0  0  0  0  0  0  0
   -2.3360   13.2820   -9.2780 H   0  0  0  0  0  0  0  0  0  0  0  0
   -9.5960   12.2160    1.0580 H   0  0  0  0  0  0  0  0  0  0  0  0
   -9.7960   13.8360    0.9790 H   0  0  0  0  0  0  0  0  0  0  0  0
  -10.9260   12.8490    0.3460 H   0  0  0  0  0  0  0  0  0  0  0  0
   -9.0100   13.9330   -1.0980 H   0  0  0  0  0  0  0  0  0  0  0  0
  -10.8680   12.9100   -2.0940 H   0  0  0  0  0  0  0  0  0  0  0  0
  -10.3690   11.4370   -1.6020 H   0  0  0  0  0  0  0  0  0  0  0  0
   -9.0630   13.0560   -3.5820 H   0  0  0  0  0  0  0  0  0  0  0  0
   -9.9140   11.6560   -3.8500 H   0  0  0  0  0  0  0  0  0  0  0  0
   -7.6710   11.3030   -3.8190 H   0  0  0  0  0  0  0  0  0  0  0  0
   -6.9930   12.9470   -2.4760 H   0  0  0  0  0  0  0  0  0  0  0  0
   -6.4060   11.4870   -1.9620 H   0  0  0  0  0  0  0  0  0  0  0  0
   -7.2710   12.7530   -0.1360 H   0  0  0  0  0  0  0  0  0  0  0  0
   -8.0810   11.3310   -0.3600 H   0  0  0  0  0  0  0  0  0  0  0  0
   -8.8050    9.9570   -1.6860 H   0  0  0  0  0  0  0  0  0  0  0  0
   -7.5230    9.4480   -2.6320 H   0  0  0  0  0  0  0  0  0  0  0  0
   -9.4080    9.6040   -4.4220 H   0  0  0  0  0  0  0  0  0  0  0  0
  -10.2750    9.1200   -3.1510 H   0  0  0  0  0  0  0  0  0  0  0  0
   -7.6120    8.9090   -5.8830 H   0  0  0  0  0  0  0  0  0  0  0  0
   -3.6260    7.8870   -5.9870 H   0  0  0  0  0  0  0  0  0  0  0  0
   -3.9260    6.5340   -4.0750 H   0  0  0  0  0  0  0  0  0  0  0  0
   -3.4710   11.5460  -10.2850 H   0  0  0  0  0  0  0  0  0  0  0  0
   -2.4460   10.9820   -9.0610 H   0  0  0  0  0  0  0  0  0  0  0  0
   -1.8940   12.2570   -7.1780 H   0  0  0  0  0  0  0  0  0  0  0  0
   -3.4430   12.8520   -6.7540 H   0  0  0  0  0  0  0  0  0  0  0  0
   -2.7160   14.8310   -6.7010 H   0  0  0  0  0  0  0  0  0  0  0  0
   -0.6280   13.7970   -5.3330 H   0  0  0  0  0  0  0  0  0  0  0  0
   -2.2130   13.9650   -4.7690 H   0  0  0  0  0  0  0  0  0  0  0  0
   -0.8600   15.7540   -3.9910 H   0  0  0  0  0  0  0  0  0  0  0  0
   -2.1080   16.2350   -4.9790 H   0  0  0  0  0  0  0  0  0  0  0  0
   -0.1240   17.3870   -5.6430 H   0  0  0  0  0  0  0  0  0  0  0  0
   -0.0870   16.6870   -7.9340 H   0  0  0  0  0  0  0  0  0  0  0  0
   -1.6190   16.8560   -7.3830 H   0  0  0  0  0  0  0  0  0  0  0  0
   -0.2070   14.3720   -7.6670 H   0  0  0  0  0  0  0  0  0  0  0  0
   -1.5280   14.9010   -8.5540 H   0  0  0  0  0  0  0  0  0  0  0  0
    1.0970   15.9800   -3.8730 H   0  0  0  0  0  0  0  0  0  0  0  0
    2.2930   15.1930   -4.3880 H   0  0  0  0  0  0  0  0  0  0  0  0
   -4.0170   14.5970   -9.3560 H   0  0  0  0  0  0  0  0  0  0  0  0
   -5.7990   10.2180  -11.2570 H   0  0  0  0  0  0  0  0  0  0  0  0
   -5.9540   11.7390  -10.6600 H   0  0  0  0  0  0  0  0  0  0  0  0
   -8.0430   10.7530  -11.4670 H   0  0  0  0  0  0  0  0  0  0  0  0
   -8.0770   11.3330   -9.9100 H   0  0  0  0  0  0  0  0  0  0  0  0
   -7.8090    8.1530   -8.4190 H   0  0  0  0  0  0  0  0  0  0  0  0
   -8.3030    9.7130   -8.0630 H   0  0  0  0  0  0  0  0  0  0  0  0
  -11.1530    9.7320   -8.4990 H   0  0  0  0  0  0  0  0  0  0  0  0
   -9.9740   10.8350   -8.7510 H   0  0  0  0  0  0  0  0  0  0  0  0
  -11.2660   10.7920   -9.7400 H   0  0  0  0  0  0  0  0  0  0  0  0
  1  2  1  0  0  0  0
  1 48  1  0  0  0  0
  1 49  1  0  0  0  0
  1 50  1  0  0  0  0
  2  3  1  0  0  0  0
  2  7  1  0  0  0  0
  2 51  1  6  0  0  0
  3  4  1  0  0  0  0
  3 52  1  0  0  0  0
  3 53  1  0  0  0  0
  4  5  1  0  0  0  0
  4 54  1  0  0  0  0
  4 55  1  0  0  0  0
  5  6  1  0  0  0  0
  5  8  1  0  0  0  0
  5 56  1  6  0  0  0
  6  7  1  0  0  0  0
  6 57  1  0  0  0  0
  6 58  1  0  0  0  0
  7 59  1  0  0  0  0
  7 60  1  0  0  0  0
  8  9  1  0  0  0  0
  8 61  1  0  0  0  0
  8 62  1  0  0  0  0
  9 10  1  0  0  0  0
  9 63  1  0  0  0  0
  9 64  1  0  0  0  0
 10 11  1  0  0  0  0
 11 12  2  0  0  0  0
 11 16  1  0  0  0  0
 12 13  1  0  0  0  0
 12 65  1  0  0  0  0
 13 14  2  0  0  0  0
 13 21  1  0  0  0  0
 14 15  1  0  0  0  0
 14 66  1  0  0  0  0
 15 16  2  0  0  0  0
 15 67  1  0  0  0  0
 16 17  1  0  0  0  0
 17 18  1  0  0  0  0
 17 19  1  0  0  0  0
 17 20  1  0  0  0  0
 21 22  1  0  0  0  0
 21 25  2  0  0  0  0
 22 23  2  0  0  0  0
 22 42  1  0  0  0  0
 23 24  1  0  0  0  0
 23 39  1  0  0  0  0
 24 25  1  0  0  0  0
 24 26  1  0  0  0  0
 26 27  1  0  0  0  0
 26 68  1  0  0  0  0
 26 69  1  0  0  0  0
 27 28  1  0  0  0  0
 27 38  1  0  0  0  0
 27 47  1  6  0  0  0
 28 29  1  0  0  0  0
 28 70  1  0  0  0  0
 28 71  1  0  0  0  0
 29 30  1  0  0  0  0
 29 34  1  0  0  0  0
 29 72  1  1  0  0  0
 30 31  1  0  0  0  0
 30 73  1  0  0  0  0
 30 74  1  0  0  0  0
 31 32  1  0  0  0  0
 31 75  1  0  0  0  0
 31 76  1  0  0  0  0
 32 33  1  0  0  0  0
 32 35  1  0  0  0  0
 32 77  1  1  0  0  0
 33 34  1  0  0  0  0
 33 78  1  0  0  0  0
 33 79  1  0  0  0  0
 34 80  1  0  0  0  0
 34 81  1  0  0  0  0
 35 36  2  0  0  0  0
 35 37  1  0  0  0  0
 37 82  1  0  0  0  0
 37 83  1  0  0  0  0
 38 84  1  0  0  0  0
 39 40  1  0  0  0  0
 39 85  1  0  0  0  0
 39 86  1  0  0  0  0
 40 41  1  0  0  0  0
 40 87  1  0  0  0  0
 40 88  1  0  0  0  0
 41 42  1  0  0  0  0
 41 43  1  0  0  0  0
 42 89  1  0  0  0  0
 42 90  1  0  0  0  0
 43 44  2  0  0  0  0
 43 45  2  0  0  0  0
 43 46  1  0  0  0  0
 46 91  1  0  0  0  0
 46 92  1  0  0  0  0
 46 93  1  0  0  0  0
M  CHG  2   5   1  29   1
M  END
