2HHN-CatS_29.pdb
 OpenBabel12031817073D

 96100  0  0  1  0  0  0  0  0999 V2000
    0.1450   19.7470   -1.4720 C   0  0  0  0  0  0  0  0  0  0  0  0
   -0.1470   18.7980   -2.6450 C   0  0  0  0  0  0  0  0  0  0  0  0
    0.9760   18.7460   -3.5430 O   0  0  0  0  0  0  0  0  0  0  0  0
    1.1230   17.6070   -4.2750 C   0  0  0  0  0  0  0  0  0  0  0  0
    1.9040   16.7480   -3.8770 O   0  0  0  0  0  0  0  0  0  0  0  0
    0.4080   17.4650   -5.4140 N   0  0  0  0  0  0  0  0  0  0  0  0
   -0.1010   16.1580   -5.8700 C   0  0  1  0  0  0  0  0  0  0  0  0
   -1.1720   15.6420   -4.8900 C   0  0  0  0  0  0  0  0  0  0  0  0
   -1.6980   14.2720   -5.3640 C   0  0  0  0  0  0  0  0  0  0  0  0
   -2.2510   14.3470   -6.7670 N   0  3  1  0  0  0  0  0  0  0  0  0
   -1.2450   14.9080   -7.7430 C   0  0  0  0  0  0  0  0  0  0  0  0
   -0.7240   16.2840   -7.2750 C   0  0  0  0  0  0  0  0  0  0  0  0
   -2.8280   13.0260   -7.2100 C   0  0  0  0  0  0  0  0  0  0  0  0
   -3.3750   13.0280   -8.6520 C   0  0  0  0  0  0  0  0  0  0  0  0
   -3.2630   11.6040   -9.2250 C   0  0  0  0  0  0  0  0  0  0  0  0
   -4.2770   10.6520   -8.7470 N   0  0  0  0  0  0  0  0  0  0  0  0
   -5.4620   10.2760   -9.2950 C   0  0  0  0  0  0  0  0  0  0  0  0
   -6.1490    9.4400   -8.5150 C   0  0  0  0  0  0  0  0  0  0  0  0
   -5.3050    9.2580   -7.3920 C   0  0  0  0  0  0  0  0  0  0  0  0
   -4.2300   10.0010   -7.5600 N   0  0  0  0  0  0  0  0  0  0  0  0
   -5.5170    8.4190   -6.2250 C   0  0  0  0  0  0  0  0  0  0  0  0
   -4.4660    7.7550   -5.6170 C   0  0  0  0  0  0  0  0  0  0  0  0
   -4.6810    6.9600   -4.5160 C   0  0  0  0  0  0  0  0  0  0  0  0
   -5.9430    6.7910   -3.9840 C   0  0  0  0  0  0  0  0  0  0  0  0
   -6.9960    7.4710   -4.5860 C   0  0  0  0  0  0  0  0  0  0  0  0
   -6.7810    8.2690   -5.6870 C   0  0  0  0  0  0  0  0  0  0  0  0
   -8.6890    7.3480   -3.9900 S   0  0  0  0  0  0  0  0  0  0  0  0
   -9.2240    8.9990   -3.4640 C   0  0  0  0  0  0  0  0  0  0  0  0
   -8.0300    9.8230   -2.9270 C   0  0  0  0  0  0  0  0  0  0  0  0
   -8.4160   10.9050   -1.9490 N   0  3  0  0  0  0  0  0  0  0  0  0
   -9.8610   11.3130   -2.0990 C   0  0  0  0  0  0  0  0  0  0  0  0
  -10.2620   12.3460   -1.0260 C   0  0  0  0  0  0  0  0  0  0  0  0
   -9.3280   13.5700   -1.0970 C   0  0  0  0  0  0  0  0  0  0  0  0
   -7.8660   13.1260   -0.9010 C   0  0  0  0  0  0  0  0  0  0  0  0
   -7.4880   12.0950   -1.9820 C   0  0  0  0  0  0  0  0  0  0  0  0
   -5.9960    5.8650   -2.7680 C   0  0  0  0  0  0  0  0  0  0  0  0
   -4.9990    4.8930   -2.8040 F   0  0  0  0  0  0  0  0  0  0  0  0
   -7.1950    5.1750   -2.6460 F   0  0  0  0  0  0  0  0  0  0  0  0
   -5.8020    6.5890   -1.5980 F   0  0  0  0  0  0  0  0  0  0  0  0
   -7.5230    8.9030   -8.8960 C   0  0  0  0  0  0  0  0  0  0  0  0
   -8.2010    9.7280   -9.9240 N   0  0  0  0  0  0  0  0  0  0  0  0
   -7.2710    9.9420  -11.0520 C   0  0  0  0  0  0  0  0  0  0  0  0
   -6.0080   10.7380  -10.6360 C   0  0  0  0  0  0  0  0  0  0  0  0
   -9.7420    9.2890  -10.2410 S   0  0  0  0  0  0  0  0  0  0  0  0
   -9.8670    7.9320   -9.8200 O   0  0  0  0  0  0  0  0  0  0  0  0
  -10.0070    9.5520  -11.6170 O   0  0  0  0  0  0  0  0  0  0  0  0
  -10.8750   10.2930   -9.2330 C   0  0  0  0  0  0  0  0  0  0  0  0
    0.3700   20.6500   -1.8320 H   0  0  0  0  0  0  0  0  0  0  0  0
   -0.6590   19.8100   -0.8810 H   0  0  0  0  0  0  0  0  0  0  0  0
    0.9130   19.3930   -0.9390 H   0  0  0  0  0  0  0  0  0  0  0  0
   -0.9530   19.1240   -3.1420 H   0  0  0  0  0  0  0  0  0  0  0  0
   -0.3170   17.8810   -2.2860 H   0  0  0  0  0  0  0  0  0  0  0  0
    0.2310   18.1830   -5.8930 H   0  0  0  0  0  0  0  0  0  0  0  0
    0.6650   15.5180   -5.9030 H   0  0  0  0  0  0  0  0  0  0  0  0
   -1.9290   16.2940   -4.8480 H   0  0  0  0  0  0  0  0  0  0  0  0
   -0.7670   15.5400   -3.9810 H   0  0  0  0  0  0  0  0  0  0  0  0
   -2.4210   13.9660   -4.7430 H   0  0  0  0  0  0  0  0  0  0  0  0
   -0.9360   13.6250   -5.3630 H   0  0  0  0  0  0  0  0  0  0  0  0
   -2.9470   14.9360   -6.7370 H   0  0  0  0  0  0  0  0  0  0  0  0
   -1.6760   15.0070   -8.6390 H   0  0  0  0  0  0  0  0  0  0  0  0
   -0.4700   14.2790   -7.7980 H   0  0  0  0  0  0  0  0  0  0  0  0
   -0.0350   16.6170   -7.9180 H   0  0  0  0  0  0  0  0  0  0  0  0
   -1.4890   16.9280   -7.2390 H   0  0  0  0  0  0  0  0  0  0  0  0
   -3.5750   12.7840   -6.5890 H   0  0  0  0  0  0  0  0  0  0  0  0
   -2.0810   12.3620   -7.1880 H   0  0  0  0  0  0  0  0  0  0  0  0
   -2.8440   13.6620   -9.2150 H   0  0  0  0  0  0  0  0  0  0  0  0
   -4.3320   13.3210   -8.6530 H   0  0  0  0  0  0  0  0  0  0  0  0
   -2.3610   11.2430   -8.9880 H   0  0  0  0  0  0  0  0  0  0  0  0
   -3.4110   11.6900  -10.2110 H   0  0  0  0  0  0  0  0  0  0  0  0
   -3.5400    7.8550   -5.9800 H   0  0  0  0  0  0  0  0  0  0  0  0
   -3.9060    6.4940   -4.0920 H   0  0  0  0  0  0  0  0  0  0  0  0
   -7.5520    8.7500   -6.1030 H   0  0  0  0  0  0  0  0  0  0  0  0
   -9.9110    8.9080   -2.7440 H   0  0  0  0  0  0  0  0  0  0  0  0
   -9.6110    9.4770   -4.2540 H   0  0  0  0  0  0  0  0  0  0  0  0
   -7.5670   10.2490   -3.7050 H   0  0  0  0  0  0  0  0  0  0  0  0
   -7.4410    9.1840   -2.4310 H   0  0  0  0  0  0  0  0  0  0  0  0
   -8.3440   10.5370   -1.1180 H   0  0  0  0  0  0  0  0  0  0  0  0
  -10.4430   10.5040   -2.0090 H   0  0  0  0  0  0  0  0  0  0  0  0
   -9.9820   11.7300   -3.0000 H   0  0  0  0  0  0  0  0  0  0  0  0
  -10.1940   11.9280   -0.1200 H   0  0  0  0  0  0  0  0  0  0  0  0
  -11.2020   12.6430   -1.1900 H   0  0  0  0  0  0  0  0  0  0  0  0
   -9.5770   14.2230   -0.3820 H   0  0  0  0  0  0  0  0  0  0  0  0
   -9.4220   14.0030   -1.9930 H   0  0  0  0  0  0  0  0  0  0  0  0
   -7.7610   12.7160    0.0040 H   0  0  0  0  0  0  0  0  0  0  0  0
   -7.2650   13.9210   -0.9790 H   0  0  0  0  0  0  0  0  0  0  0  0
   -7.5430   12.5260   -2.8820 H   0  0  0  0  0  0  0  0  0  0  0  0
   -6.5580   11.7760   -1.8030 H   0  0  0  0  0  0  0  0  0  0  0  0
   -8.0940    8.8750   -8.0770 H   0  0  0  0  0  0  0  0  0  0  0  0
   -7.3890    7.9920   -9.2870 H   0  0  0  0  0  0  0  0  0  0  0  0
   -7.7470   10.4470  -11.7720 H   0  0  0  0  0  0  0  0  0  0  0  0
   -6.9720    9.0440  -11.3750 H   0  0  0  0  0  0  0  0  0  0  0  0
   -5.3030   10.6150  -11.3340 H   0  0  0  0  0  0  0  0  0  0  0  0
   -6.2650   11.7000  -10.5490 H   0  0  0  0  0  0  0  0  0  0  0  0
  -11.4600   10.8310   -9.8400 H   0  0  0  0  0  0  0  0  0  0  0  0
  -11.4400    9.6950   -8.6640 H   0  0  0  0  0  0  0  0  0  0  0  0
  -10.3480   10.9030   -8.6420 H   0  0  0  0  0  0  0  0  0  0  0  0
  1  2  1  0  0  0  0
  1 48  1  0  0  0  0
  1 49  1  0  0  0  0
  1 50  1  0  0  0  0
  2  3  1  0  0  0  0
  2 51  1  0  0  0  0
  2 52  1  0  0  0  0
  3  4  1  0  0  0  0
  4  5  2  0  0  0  0
  4  6  1  0  0  0  0
  6  7  1  0  0  0  0
  6 53  1  0  0  0  0
  7  8  1  0  0  0  0
  7 12  1  0  0  0  0
  7 54  1  6  0  0  0
  8  9  1  0  0  0  0
  8 55  1  0  0  0  0
  8 56  1  0  0  0  0
  9 10  1  0  0  0  0
  9 57  1  0  0  0  0
  9 58  1  0  0  0  0
 10 11  1  0  0  0  0
 10 13  1  0  0  0  0
 10 59  1  1  0  0  0
 11 12  1  0  0  0  0
 11 60  1  0  0  0  0
 11 61  1  0  0  0  0
 12 62  1  0  0  0  0
 12 63  1  0  0  0  0
 13 14  1  0  0  0  0
 13 64  1  0  0  0  0
 13 65  1  0  0  0  0
 14 15  1  0  0  0  0
 14 66  1  0  0  0  0
 14 67  1  0  0  0  0
 15 16  1  0  0  0  0
 15 68  1  0  0  0  0
 15 69  1  0  0  0  0
 16 17  1  0  0  0  0
 16 20  1  0  0  0  0
 17 18  2  0  0  0  0
 17 43  1  0  0  0  0
 18 19  1  0  0  0  0
 18 40  1  0  0  0  0
 19 20  2  0  0  0  0
 19 21  1  0  0  0  0
 21 22  2  0  0  0  0
 21 26  1  0  0  0  0
 22 23  1  0  0  0  0
 22 70  1  0  0  0  0
 23 24  2  0  0  0  0
 23 71  1  0  0  0  0
 24 25  1  0  0  0  0
 24 36  1  0  0  0  0
 25 26  2  0  0  0  0
 25 27  1  0  0  0  0
 26 72  1  0  0  0  0
 27 28  1  0  0  0  0
 28 29  1  0  0  0  0
 28 73  1  0  0  0  0
 28 74  1  0  0  0  0
 29 30  1  0  0  0  0
 29 75  1  0  0  0  0
 29 76  1  0  0  0  0
 30 31  1  0  0  0  0
 30 35  1  0  0  0  0
 30 77  1  0  0  0  0
 31 32  1  0  0  0  0
 31 78  1  0  0  0  0
 31 79  1  0  0  0  0
 32 33  1  0  0  0  0
 32 80  1  0  0  0  0
 32 81  1  0  0  0  0
 33 34  1  0  0  0  0
 33 82  1  0  0  0  0
 33 83  1  0  0  0  0
 34 35  1  0  0  0  0
 34 84  1  0  0  0  0
 34 85  1  0  0  0  0
 35 86  1  0  0  0  0
 35 87  1  0  0  0  0
 36 37  1  0  0  0  0
 36 38  1  0  0  0  0
 36 39  1  0  0  0  0
 40 41  1  0  0  0  0
 40 88  1  0  0  0  0
 40 89  1  0  0  0  0
 41 42  1  0  0  0  0
 41 44  1  0  0  0  0
 42 43  1  0  0  0  0
 42 90  1  0  0  0  0
 42 91  1  0  0  0  0
 43 92  1  0  0  0  0
 43 93  1  0  0  0  0
 44 45  2  0  0  0  0
 44 46  2  0  0  0  0
 44 47  1  0  0  0  0
 47 94  1  0  0  0  0
 47 95  1  0  0  0  0
 47 96  1  0  0  0  0
M  CHG  2  10   1  30   1
M  END
