2HHN-CatS_185.pdb
 OpenBabel12031817073D

101105  0  0  1  0  0  0  0  0999 V2000
   -9.7360   14.5470   -0.7110 C   0  0  0  0  0  0  0  0  0  0  0  0
   -9.4600   13.4840   -1.7870 C   0  0  1  0  0  0  0  0  0  0  0  0
   -8.0020   13.0640   -1.7430 C   0  0  0  0  0  0  0  0  0  0  0  0
   -7.7210   11.8800   -2.6590 C   0  0  0  0  0  0  0  0  0  0  0  0
   -8.5700   10.7380   -2.3190 N   0  3  1  0  0  0  0  0  0  0  0  0
   -9.9720   11.1160   -2.5040 C   0  0  0  0  0  0  0  0  0  0  0  0
  -10.3480   12.2670   -1.5760 C   0  0  0  0  0  0  0  0  0  0  0  0
   -8.1220    9.4830   -3.0260 C   0  0  0  0  0  0  0  0  0  0  0  0
   -9.2380    8.4450   -3.2830 C   0  0  0  0  0  0  0  0  0  0  0  0
   -8.5170    6.9270   -3.9600 S   0  0  0  0  0  0  0  0  0  0  0  0
   -6.8700    7.2960   -4.5840 C   0  0  0  0  0  0  0  0  0  0  0  0
   -6.7730    8.0210   -5.7530 C   0  0  0  0  0  0  0  0  0  0  0  0
   -5.5340    8.3510   -6.2820 C   0  0  0  0  0  0  0  0  0  0  0  0
   -4.3990    7.9330   -5.6120 C   0  0  0  0  0  0  0  0  0  0  0  0
   -4.5030    7.2200   -4.4410 C   0  0  0  0  0  0  0  0  0  0  0  0
   -5.7300    6.8900   -3.9010 C   0  0  0  0  0  0  0  0  0  0  0  0
   -5.7120    6.1090   -2.5880 C   0  0  0  0  0  0  0  0  0  0  0  0
   -5.5270    6.9580   -1.5020 F   0  0  0  0  0  0  0  0  0  0  0  0
   -6.9140    5.4390   -2.3970 F   0  0  0  0  0  0  0  0  0  0  0  0
   -4.7070    5.1480   -2.5200 F   0  0  0  0  0  0  0  0  0  0  0  0
   -5.4180    9.1370   -7.5010 C   0  0  0  0  0  0  0  0  0  0  0  0
   -6.2590    9.1290   -8.6410 C   0  0  0  0  0  0  0  0  0  0  0  0
   -5.7280   10.0670   -9.4250 C   0  0  0  0  0  0  0  0  0  0  0  0
   -4.6140   10.6360   -8.8950 N   0  0  0  0  0  0  0  0  0  0  0  0
   -4.4600   10.0210   -7.6990 N   0  0  0  0  0  0  0  0  0  0  0  0
   -3.7690   11.7350   -9.3910 C   0  0  0  0  0  0  0  0  0  0  0  0
   -3.7480   12.9990   -8.5020 C   0  0  2  0  0  0  0  0  0  0  0  0
   -2.8420   12.8160   -7.2590 C   0  0  0  0  0  0  0  0  0  0  0  0
   -2.2520   14.1030   -6.7290 N   0  3  1  0  0  0  0  0  0  0  0  0
   -1.6170   13.9550   -5.3690 C   0  0  0  0  0  0  0  0  0  0  0  0
   -1.1650   15.3250   -4.8310 C   0  0  0  0  0  0  0  0  0  0  0  0
   -0.1490   15.9920   -5.7910 C   0  0  1  0  0  0  0  0  0  0  0  0
   -0.8170   16.1250   -7.1850 C   0  0  0  0  0  0  0  0  0  0  0  0
   -1.3030   14.7540   -7.7040 C   0  0  0  0  0  0  0  0  0  0  0  0
    0.4420   17.3290   -5.2270 C   0  0  0  0  0  0  0  0  0  0  0  0
   -0.6920   18.2740   -4.7790 C   0  0  0  0  0  0  0  0  0  0  0  0
    1.3200   17.0880   -3.9820 C   0  0  0  0  0  0  0  0  0  0  0  0
    1.2990   18.0980   -6.2500 C   0  0  0  0  0  0  0  0  0  0  0  0
   -5.0750   13.3770   -8.1120 O   0  0  0  0  0  0  0  0  0  0  0  0
   -6.3520   10.4480  -10.7560 C   0  0  0  0  0  0  0  0  0  0  0  0
   -7.5310    9.5250  -11.1450 C   0  0  0  0  0  0  0  0  0  0  0  0
   -8.3610    9.0840  -10.0020 N   0  0  0  0  0  0  0  0  0  0  0  0
   -7.5060    8.3420   -9.0430 C   0  0  0  0  0  0  0  0  0  0  0  0
   -9.3770   10.2490   -9.4680 S   0  0  0  0  0  0  0  0  0  0  0  0
  -10.6170    9.6420   -9.0990 O   0  0  0  0  0  0  0  0  0  0  0  0
   -9.4870   11.2210  -10.5060 O   0  0  0  0  0  0  0  0  0  0  0  0
   -8.6710   11.0530   -8.0010 C   0  0  0  0  0  0  0  0  0  0  0  0
   -3.3580   13.7370   -9.0530 H   0  0  0  0  0  0  0  0  0  0  0  0
  -10.2440   14.1250    0.0400 H   0  0  0  0  0  0  0  0  0  0  0  0
   -8.8700   14.9130   -0.3680 H   0  0  0  0  0  0  0  0  0  0  0  0
  -10.2710   15.2930   -1.1040 H   0  0  0  0  0  0  0  0  0  0  0  0
   -9.6720   13.8650   -2.6870 H   0  0  0  0  0  0  0  0  0  0  0  0
   -7.7620   12.8080   -0.8060 H   0  0  0  0  0  0  0  0  0  0  0  0
   -7.4380   13.8310   -2.0480 H   0  0  0  0  0  0  0  0  0  0  0  0
   -6.7590   11.6250   -2.5650 H   0  0  0  0  0  0  0  0  0  0  0  0
   -7.9410   12.1650   -3.5920 H   0  0  0  0  0  0  0  0  0  0  0  0
   -8.4480   10.5860   -1.4290 H   0  0  0  0  0  0  0  0  0  0  0  0
  -10.5520   10.3250   -2.3070 H   0  0  0  0  0  0  0  0  0  0  0  0
  -10.0920   11.4170   -3.4500 H   0  0  0  0  0  0  0  0  0  0  0  0
  -10.2580   11.9580   -0.6280 H   0  0  0  0  0  0  0  0  0  0  0  0
  -11.2880   12.5320   -1.7830 H   0  0  0  0  0  0  0  0  0  0  0  0
   -7.4120    9.0480   -2.4720 H   0  0  0  0  0  0  0  0  0  0  0  0
   -7.7970    9.7690   -3.9270 H   0  0  0  0  0  0  0  0  0  0  0  0
   -9.9000    8.8200   -3.9310 H   0  0  0  0  0  0  0  0  0  0  0  0
   -9.7000    8.2350   -2.4210 H   0  0  0  0  0  0  0  0  0  0  0  0
   -7.6050    8.3110   -6.2250 H   0  0  0  0  0  0  0  0  0  0  0  0
   -3.4960    8.1510   -5.9820 H   0  0  0  0  0  0  0  0  0  0  0  0
   -3.6700    6.9340   -3.9680 H   0  0  0  0  0  0  0  0  0  0  0  0
   -4.0990   11.9960  -10.2980 H   0  0  0  0  0  0  0  0  0  0  0  0
   -2.8320   11.3840   -9.3960 H   0  0  0  0  0  0  0  0  0  0  0  0
   -2.0910   12.2010   -7.5030 H   0  0  0  0  0  0  0  0  0  0  0  0
   -3.4210   12.4460   -6.5330 H   0  0  0  0  0  0  0  0  0  0  0  0
   -2.9450   14.6860   -6.6340 H   0  0  0  0  0  0  0  0  0  0  0  0
   -0.8250   13.3490   -5.4400 H   0  0  0  0  0  0  0  0  0  0  0  0
   -2.2910   13.5680   -4.7410 H   0  0  0  0  0  0  0  0  0  0  0  0
   -0.7400   15.2020   -3.9330 H   0  0  0  0  0  0  0  0  0  0  0  0
   -1.9680   15.9180   -4.7540 H   0  0  0  0  0  0  0  0  0  0  0  0
    0.6600   15.4130   -5.8850 H   0  0  0  0  0  0  0  0  0  0  0  0
   -0.1550   16.5050   -7.8310 H   0  0  0  0  0  0  0  0  0  0  0  0
   -1.6100   16.7290   -7.1010 H   0  0  0  0  0  0  0  0  0  0  0  0
   -0.5130   14.1570   -7.8400 H   0  0  0  0  0  0  0  0  0  0  0  0
   -1.7890   14.8970   -8.5660 H   0  0  0  0  0  0  0  0  0  0  0  0
   -0.5730   19.1610   -5.2250 H   0  0  0  0  0  0  0  0  0  0  0  0
   -1.5780   17.8860   -5.0350 H   0  0  0  0  0  0  0  0  0  0  0  0
   -0.6640   18.3880   -3.7860 H   0  0  0  0  0  0  0  0  0  0  0  0
    2.2200   17.4960   -4.1360 H   0  0  0  0  0  0  0  0  0  0  0  0
    0.8930   17.5070   -3.1810 H   0  0  0  0  0  0  0  0  0  0  0  0
    1.4180   16.1060   -3.8240 H   0  0  0  0  0  0  0  0  0  0  0  0
    2.1960   18.2840   -5.8500 H   0  0  0  0  0  0  0  0  0  0  0  0
    1.4080   17.5510   -7.0810 H   0  0  0  0  0  0  0  0  0  0  0  0
    0.8500   18.9610   -6.4860 H   0  0  0  0  0  0  0  0  0  0  0  0
   -5.7210   12.6140   -8.2310 H   0  0  0  0  0  0  0  0  0  0  0  0
   -5.6510   10.3930  -11.4680 H   0  0  0  0  0  0  0  0  0  0  0  0
   -6.7120   11.3760  -10.6680 H   0  0  0  0  0  0  0  0  0  0  0  0
   -7.1590    8.7130  -11.5970 H   0  0  0  0  0  0  0  0  0  0  0  0
   -8.1280   10.0600  -11.7420 H   0  0  0  0  0  0  0  0  0  0  0  0
   -7.2230    7.4810   -9.4660 H   0  0  0  0  0  0  0  0  0  0  0  0
   -8.0440    8.1840   -8.2160 H   0  0  0  0  0  0  0  0  0  0  0  0
   -8.4830   12.0120   -8.2150 H   0  0  0  0  0  0  0  0  0  0  0  0
   -9.3190   10.9990   -7.2410 H   0  0  0  0  0  0  0  0  0  0  0  0
   -7.8240   10.5920   -7.7400 H   0  0  0  0  0  0  0  0  0  0  0  0
  1  2  1  0  0  0  0
  1 49  1  0  0  0  0
  1 50  1  0  0  0  0
  1 51  1  0  0  0  0
  2  3  1  0  0  0  0
  2  7  1  0  0  0  0
  2 52  1  6  0  0  0
  3  4  1  0  0  0  0
  3 53  1  0  0  0  0
  3 54  1  0  0  0  0
  4  5  1  0  0  0  0
  4 55  1  0  0  0  0
  4 56  1  0  0  0  0
  5  6  1  0  0  0  0
  5  8  1  0  0  0  0
  5 57  1  1  0  0  0
  6  7  1  0  0  0  0
  6 58  1  0  0  0  0
  6 59  1  0  0  0  0
  7 60  1  0  0  0  0
  7 61  1  0  0  0  0
  8  9  1  0  0  0  0
  8 62  1  0  0  0  0
  8 63  1  0  0  0  0
  9 10  1  0  0  0  0
  9 64  1  0  0  0  0
  9 65  1  0  0  0  0
 10 11  1  0  0  0  0
 11 12  2  0  0  0  0
 11 16  1  0  0  0  0
 12 13  1  0  0  0  0
 12 66  1  0  0  0  0
 13 14  2  0  0  0  0
 13 21  1  0  0  0  0
 14 15  1  0  0  0  0
 14 67  1  0  0  0  0
 15 16  2  0  0  0  0
 15 68  1  0  0  0  0
 16 17  1  0  0  0  0
 17 18  1  0  0  0  0
 17 19  1  0  0  0  0
 17 20  1  0  0  0  0
 21 22  1  0  0  0  0
 21 25  2  0  0  0  0
 22 23  2  0  0  0  0
 22 43  1  0  0  0  0
 23 24  1  0  0  0  0
 23 40  1  0  0  0  0
 24 25  1  0  0  0  0
 24 26  1  0  0  0  0
 26 27  1  0  0  0  0
 26 69  1  0  0  0  0
 26 70  1  0  0  0  0
 27 28  1  0  0  0  0
 27 39  1  0  0  0  0
 27 48  1  6  0  0  0
 28 29  1  0  0  0  0
 28 71  1  0  0  0  0
 28 72  1  0  0  0  0
 29 30  1  0  0  0  0
 29 34  1  0  0  0  0
 29 73  1  1  0  0  0
 30 31  1  0  0  0  0
 30 74  1  0  0  0  0
 30 75  1  0  0  0  0
 31 32  1  0  0  0  0
 31 76  1  0  0  0  0
 31 77  1  0  0  0  0
 32 33  1  0  0  0  0
 32 35  1  0  0  0  0
 32 78  1  6  0  0  0
 33 34  1  0  0  0  0
 33 79  1  0  0  0  0
 33 80  1  0  0  0  0
 34 81  1  0  0  0  0
 34 82  1  0  0  0  0
 35 36  1  0  0  0  0
 35 37  1  0  0  0  0
 35 38  1  0  0  0  0
 36 83  1  0  0  0  0
 36 84  1  0  0  0  0
 36 85  1  0  0  0  0
 37 86  1  0  0  0  0
 37 87  1  0  0  0  0
 37 88  1  0  0  0  0
 38 89  1  0  0  0  0
 38 90  1  0  0  0  0
 38 91  1  0  0  0  0
 39 92  1  0  0  0  0
 40 41  1  0  0  0  0
 40 93  1  0  0  0  0
 40 94  1  0  0  0  0
 41 42  1  0  0  0  0
 41 95  1  0  0  0  0
 41 96  1  0  0  0  0
 42 43  1  0  0  0  0
 42 44  1  0  0  0  0
 43 97  1  0  0  0  0
 43 98  1  0  0  0  0
 44 45  2  0  0  0  0
 44 46  2  0  0  0  0
 44 47  1  0  0  0  0
 47 99  1  0  0  0  0
 47100  1  0  0  0  0
 47101  1  0  0  0  0
M  CHG  2   5   1  29   1
M  END
