2HHN-CatS_172.pdb
 OpenBabel12031817073D

 90 94  0  0  1  0  0  0  0  0999 V2000
    0.9990   16.1310   -5.6160 C   0  0  0  0  0  0  0  0  0  0  0  0
   -0.4640   16.5380   -5.8820 C   0  0  2  0  0  0  0  0  0  0  0  0
   -1.4440   15.6890   -5.0920 C   0  0  0  0  0  0  0  0  0  0  0  0
   -1.4200   14.2560   -5.6040 C   0  0  0  0  0  0  0  0  0  0  0  0
   -1.7590   14.1870   -7.0290 N   0  3  1  0  0  0  0  0  0  0  0  0
   -0.8050   14.9900   -7.8220 C   0  0  0  0  0  0  0  0  0  0  0  0
   -0.7740   16.4480   -7.3710 C   0  0  0  0  0  0  0  0  0  0  0  0
   -1.9420   12.7680   -7.5210 C   0  0  0  0  0  0  0  0  0  0  0  0
   -2.4340   12.7080   -8.9910 C   0  0  1  0  0  0  0  0  0  0  0  0
   -3.1160   11.3700   -9.3560 C   0  0  0  0  0  0  0  0  0  0  0  0
   -4.2730   10.6880   -8.7430 N   0  0  0  0  0  0  0  0  0  0  0  0
   -5.5490   10.4500   -9.1680 C   0  0  0  0  0  0  0  0  0  0  0  0
   -6.2040    9.5920   -8.3840 C   0  0  0  0  0  0  0  0  0  0  0  0
   -5.2900    9.3070   -7.3480 C   0  0  0  0  0  0  0  0  0  0  0  0
   -4.1830    9.9740   -7.5890 N   0  0  0  0  0  0  0  0  0  0  0  0
   -5.5270    8.4590   -6.1900 C   0  0  0  0  0  0  0  0  0  0  0  0
   -4.5000    7.6770   -5.7000 C   0  0  0  0  0  0  0  0  0  0  0  0
   -4.7170    6.8110   -4.6650 C   0  0  0  0  0  0  0  0  0  0  0  0
   -5.9570    6.6770   -4.0760 C   0  0  0  0  0  0  0  0  0  0  0  0
   -6.9890    7.4990   -4.5330 C   0  0  0  0  0  0  0  0  0  0  0  0
   -6.7610    8.3740   -5.5720 C   0  0  0  0  0  0  0  0  0  0  0  0
   -8.6730    7.5060   -3.8740 S   0  0  0  0  0  0  0  0  0  0  0  0
   -9.2690    9.1110   -3.2890 C   0  0  0  0  0  0  0  0  0  0  0  0
   -8.2430   10.2290   -3.0310 C   0  0  0  0  0  0  0  0  0  0  0  0
   -8.7290   11.1990   -1.9680 N   0  3  0  0  0  0  0  0  0  0  0  0
  -10.1660   11.4750   -2.0070 C   0  0  0  0  0  0  0  0  0  0  0  0
  -10.6110   12.1980   -0.7390 C   0  0  0  0  0  0  0  0  0  0  0  0
   -9.8490   13.4980   -0.5270 C   0  0  0  0  0  0  0  0  0  0  0  0
   -8.3580   13.2360   -0.6350 C   0  0  0  0  0  0  0  0  0  0  0  0
   -8.0040   12.4680   -1.9020 C   0  0  0  0  0  0  0  0  0  0  0  0
  -10.2470   14.4320   -1.4790 F   0  0  0  0  0  0  0  0  0  0  0  0
  -10.1690   14.0230    0.7200 F   0  0  0  0  0  0  0  0  0  0  0  0
   -5.9300    5.5900   -3.0000 C   0  0  0  0  0  0  0  0  0  0  0  0
   -4.8600    4.7060   -3.1310 F   0  0  0  0  0  0  0  0  0  0  0  0
   -7.0580    4.7850   -3.0500 F   0  0  0  0  0  0  0  0  0  0  0  0
   -5.8120    6.1280   -1.7240 F   0  0  0  0  0  0  0  0  0  0  0  0
   -7.6210    9.1040   -8.6540 C   0  0  0  0  0  0  0  0  0  0  0  0
   -8.3970    9.8920   -9.6250 N   0  0  0  0  0  0  0  0  0  0  0  0
   -7.5230   10.2460  -10.7640 C   0  0  0  0  0  0  0  0  0  0  0  0
   -6.2710   11.0630  -10.3560 C   0  0  0  0  0  0  0  0  0  0  0  0
   -9.7970    9.1630  -10.0120 S   0  0  0  0  0  0  0  0  0  0  0  0
   -9.6090    7.7480   -9.9570 O   0  0  0  0  0  0  0  0  0  0  0  0
  -10.0640    9.3110  -11.4060 O   0  0  0  0  0  0  0  0  0  0  0  0
  -11.2530    9.6280   -9.0400 C   0  0  0  0  0  0  0  0  0  0  0  0
   -3.4250   13.7330   -9.1580 O   0  0  0  0  0  0  0  0  0  0  0  0
   -0.6280   17.9030   -5.4790 O   0  0  0  0  0  0  0  0  0  0  0  0
   -1.6300   12.8180   -9.5760 H   0  0  0  0  0  0  0  0  0  0  0  0
    1.4340   15.8950   -6.4840 H   0  0  0  0  0  0  0  0  0  0  0  0
    1.4890   16.8930   -5.1920 H   0  0  0  0  0  0  0  0  0  0  0  0
    1.0240   15.3450   -5.0000 H   0  0  0  0  0  0  0  0  0  0  0  0
   -2.3570   16.0810   -5.1940 H   0  0  0  0  0  0  0  0  0  0  0  0
   -1.1300   15.6930   -4.1430 H   0  0  0  0  0  0  0  0  0  0  0  0
   -2.0810   13.7110   -5.0880 H   0  0  0  0  0  0  0  0  0  0  0  0
   -0.4990   13.8900   -5.4840 H   0  0  0  0  0  0  0  0  0  0  0  0
   -2.5620   14.6050   -7.1390 H   0  0  0  0  0  0  0  0  0  0  0  0
   -1.0640   14.9650   -8.7880 H   0  0  0  0  0  0  0  0  0  0  0  0
    0.1170   14.6130   -7.7220 H   0  0  0  0  0  0  0  0  0  0  0  0
   -1.6660   16.8580   -7.5660 H   0  0  0  0  0  0  0  0  0  0  0  0
   -0.0320   16.8930   -7.8750 H   0  0  0  0  0  0  0  0  0  0  0  0
   -2.6120   12.3110   -6.9380 H   0  0  0  0  0  0  0  0  0  0  0  0
   -1.0510   12.3170   -7.4810 H   0  0  0  0  0  0  0  0  0  0  0  0
   -2.3780   10.6960   -9.2990 H   0  0  0  0  0  0  0  0  0  0  0  0
   -3.5780   11.6850  -10.1840 H   0  0  0  0  0  0  0  0  0  0  0  0
   -3.5880    7.7480   -6.1060 H   0  0  0  0  0  0  0  0  0  0  0  0
   -3.9550    6.2600   -4.3250 H   0  0  0  0  0  0  0  0  0  0  0  0
   -7.5060    8.9620   -5.8880 H   0  0  0  0  0  0  0  0  0  0  0  0
   -9.7550    8.9510   -2.4300 H   0  0  0  0  0  0  0  0  0  0  0  0
   -9.8180    9.4570   -4.0490 H   0  0  0  0  0  0  0  0  0  0  0  0
   -8.0860   10.7290   -3.8820 H   0  0  0  0  0  0  0  0  0  0  0  0
   -7.3970    9.8080   -2.7050 H   0  0  0  0  0  0  0  0  0  0  0  0
   -8.5370   10.7980   -1.1720 H   0  0  0  0  0  0  0  0  0  0  0  0
  -10.6520   10.6070   -2.0960 H   0  0  0  0  0  0  0  0  0  0  0  0
  -10.3250   12.0810   -2.7860 H   0  0  0  0  0  0  0  0  0  0  0  0
  -10.4570   11.6060    0.0510 H   0  0  0  0  0  0  0  0  0  0  0  0
  -11.5840   12.4180   -0.8160 H   0  0  0  0  0  0  0  0  0  0  0  0
   -8.0670   12.7080    0.1630 H   0  0  0  0  0  0  0  0  0  0  0  0
   -7.9000   14.1240   -0.6780 H   0  0  0  0  0  0  0  0  0  0  0  0
   -7.0190   12.2930   -1.9050 H   0  0  0  0  0  0  0  0  0  0  0  0
   -8.2820   13.0290   -2.6810 H   0  0  0  0  0  0  0  0  0  0  0  0
   -8.1180    9.1050   -7.7870 H   0  0  0  0  0  0  0  0  0  0  0  0
   -7.5210    8.1960   -9.0620 H   0  0  0  0  0  0  0  0  0  0  0  0
   -8.0550   10.7830  -11.4170 H   0  0  0  0  0  0  0  0  0  0  0  0
   -7.1940    9.3870  -11.1560 H   0  0  0  0  0  0  0  0  0  0  0  0
   -6.5540   11.9930  -10.1200 H   0  0  0  0  0  0  0  0  0  0  0  0
   -5.6400   11.0660  -11.1320 H   0  0  0  0  0  0  0  0  0  0  0  0
  -11.9840    9.9070   -9.6620 H   0  0  0  0  0  0  0  0  0  0  0  0
  -11.5550    8.8490   -8.4920 H   0  0  0  0  0  0  0  0  0  0  0  0
  -11.0210   10.3860   -8.4300 H   0  0  0  0  0  0  0  0  0  0  0  0
   -4.0380   13.7940   -8.3650 H   0  0  0  0  0  0  0  0  0  0  0  0
   -0.6160   17.9930   -4.4770 H   0  0  0  0  0  0  0  0  0  0  0  0
  1 48  1  0  0  0  0
  1 49  1  0  0  0  0
  1 50  1  0  0  0  0
  2  1  1  1  0  0  0
  2  3  1  0  0  0  0
  2  7  1  0  0  0  0
  2 46  1  0  0  0  0
  3  4  1  0  0  0  0
  3 51  1  0  0  0  0
  3 52  1  0  0  0  0
  4  5  1  0  0  0  0
  4 53  1  0  0  0  0
  4 54  1  0  0  0  0
  5  6  1  0  0  0  0
  5  8  1  0  0  0  0
  5 55  1  6  0  0  0
  6  7  1  0  0  0  0
  6 56  1  0  0  0  0
  6 57  1  0  0  0  0
  7 58  1  0  0  0  0
  7 59  1  0  0  0  0
  8  9  1  0  0  0  0
  8 60  1  0  0  0  0
  8 61  1  0  0  0  0
  9 10  1  0  0  0  0
  9 45  1  0  0  0  0
  9 47  1  6  0  0  0
 10 11  1  0  0  0  0
 10 62  1  0  0  0  0
 10 63  1  0  0  0  0
 11 12  1  0  0  0  0
 11 15  1  0  0  0  0
 12 13  2  0  0  0  0
 12 40  1  0  0  0  0
 13 14  1  0  0  0  0
 13 37  1  0  0  0  0
 14 15  2  0  0  0  0
 14 16  1  0  0  0  0
 16 17  2  0  0  0  0
 16 21  1  0  0  0  0
 17 18  1  0  0  0  0
 17 64  1  0  0  0  0
 18 19  2  0  0  0  0
 18 65  1  0  0  0  0
 19 20  1  0  0  0  0
 19 33  1  0  0  0  0
 20 21  2  0  0  0  0
 20 22  1  0  0  0  0
 21 66  1  0  0  0  0
 22 23  1  0  0  0  0
 23 24  1  0  0  0  0
 23 67  1  0  0  0  0
 23 68  1  0  0  0  0
 24 25  1  0  0  0  0
 24 69  1  0  0  0  0
 24 70  1  0  0  0  0
 25 26  1  0  0  0  0
 25 30  1  0  0  0  0
 25 71  1  0  0  0  0
 26 27  1  0  0  0  0
 26 72  1  0  0  0  0
 26 73  1  0  0  0  0
 27 28  1  0  0  0  0
 27 74  1  0  0  0  0
 27 75  1  0  0  0  0
 28 29  1  0  0  0  0
 28 31  1  0  0  0  0
 28 32  1  0  0  0  0
 29 30  1  0  0  0  0
 29 76  1  0  0  0  0
 29 77  1  0  0  0  0
 30 78  1  0  0  0  0
 30 79  1  0  0  0  0
 33 34  1  0  0  0  0
 33 35  1  0  0  0  0
 33 36  1  0  0  0  0
 37 38  1  0  0  0  0
 37 80  1  0  0  0  0
 37 81  1  0  0  0  0
 38 39  1  0  0  0  0
 38 41  1  0  0  0  0
 39 40  1  0  0  0  0
 39 82  1  0  0  0  0
 39 83  1  0  0  0  0
 40 84  1  0  0  0  0
 40 85  1  0  0  0  0
 41 42  2  0  0  0  0
 41 43  2  0  0  0  0
 41 44  1  0  0  0  0
 44 86  1  0  0  0  0
 44 87  1  0  0  0  0
 44 88  1  0  0  0  0
 45 89  1  0  0  0  0
 46 90  1  0  0  0  0
M  CHG  2   5   1  25   1
M  END
