BACE_17:1_D
 OpenBabel10051815513D

 62 64  0  0  1  0  0  0  0  0999 V2000
   29.3924   47.8406   -5.8224 C   0  0  0  0  0  0  0  0  0  0  0  0
   27.9350   47.7747   -6.0106 N   0  0  0  0  0  0  0  0  0  0  0  0
   27.2218   49.0581   -5.8903 C   0  0  0  0  0  0  0  0  0  0  0  0
   27.3255   46.5806   -6.2269 C   0  0  0  0  0  0  0  0  0  0  0  0
   27.9269   45.5120   -6.1332 O   0  0  0  0  0  0  0  0  0  0  0  0
   25.8866   46.4458   -6.5969 C   0  0  0  0  0  0  0  0  0  0  0  0
   25.2159   47.3874   -7.3661 C   0  0  0  0  0  0  0  0  0  0  0  0
   25.1839   45.3287   -6.1691 C   0  0  0  0  0  0  0  0  0  0  0  0
   23.8537   45.1342   -6.5015 C   0  0  0  0  0  0  0  0  0  0  0  0
   23.2282   46.0824   -7.2912 C   0  0  0  0  0  0  0  0  0  0  0  0
   23.8856   47.2182   -7.7029 C   0  0  0  0  0  0  0  0  0  0  0  0
   23.0772   43.9764   -5.9892 C   0  0  0  0  0  0  0  0  0  0  0  0
   23.4309   43.5151   -4.9060 O   0  0  0  0  0  0  0  0  0  0  0  0
   22.0075   43.5350   -6.6876 N   0  0  0  0  0  0  0  0  0  0  0  0
   20.9439   42.7649   -6.0205 C   0  0  2  0  0  0  0  0  0  0  0  0
   21.1170   41.2355   -6.1589 C   0  0  1  0  0  0  0  0  0  0  0  0
   21.8927   40.9159   -7.3239 O   0  0  0  0  0  0  0  0  0  0  0  0
   21.7619   40.5950   -4.9179 C   0  0  0  0  0  0  0  0  0  0  0  0
   20.7945   40.4607   -3.8665 O   0  0  0  0  0  0  0  0  0  0  0  0
   19.5100   43.1319   -6.4968 C   0  0  0  0  0  0  0  0  0  0  0  0
   19.2054   44.4748   -7.1608 C   0  0  0  0  0  0  0  0  0  0  0  0
   19.8679   45.6484   -6.8703 C   0  0  0  0  0  0  0  0  0  0  0  0
   19.5792   46.8260   -7.5400 C   0  0  0  0  0  0  0  0  0  0  0  0
   18.5655   46.8132   -8.4860 C   0  0  0  0  0  0  0  0  0  0  0  0
   17.8819   45.6550   -8.7642 C   0  0  0  0  0  0  0  0  0  0  0  0
   18.2052   44.4907   -8.1079 C   0  0  0  0  0  0  0  0  0  0  0  0
   20.2965   47.9290   -7.2629 O   0  0  0  0  0  0  0  0  0  0  0  0
   20.0538   49.1334   -8.0286 C   0  0  0  0  0  0  0  0  0  0  0  0
   20.9996   50.2938   -7.6380 C   0  0  0  0  0  0  0  0  0  0  0  0
   22.2555   50.4129   -8.5388 C   0  0  0  0  0  0  0  0  0  0  0  0
   23.4331   49.5195   -8.0976 C   0  0  0  0  0  0  0  0  0  0  0  0
   23.1991   48.1293   -8.4005 O   0  0  0  0  0  0  0  0  0  0  0  0
   21.0434   43.0260   -5.0603 H   0  0  0  0  0  0  0  0  0  0  0  0
   20.1969   40.8548   -6.2511 H   0  0  0  0  0  0  0  0  0  0  0  0
   29.7709   46.9171   -5.8845 H   0  0  0  0  0  0  0  0  0  0  0  0
   29.7986   48.4193   -6.5297 H   0  0  0  0  0  0  0  0  0  0  0  0
   29.5987   48.2305   -4.9250 H   0  0  0  0  0  0  0  0  0  0  0  0
   26.2404   48.8961   -5.9932 H   0  0  0  0  0  0  0  0  0  0  0  0
   27.4040   49.4632   -4.9943 H   0  0  0  0  0  0  0  0  0  0  0  0
   27.5368   49.6863   -6.6016 H   0  0  0  0  0  0  0  0  0  0  0  0
   25.7033   48.2015   -7.6819 H   0  0  0  0  0  0  0  0  0  0  0  0
   25.6501   44.6462   -5.6063 H   0  0  0  0  0  0  0  0  0  0  0  0
   22.2782   45.9390   -7.5684 H   0  0  0  0  0  0  0  0  0  0  0  0
   21.9109   43.7534   -7.5349 H   0  0  0  0  0  0  0  0  0  0  0  0
   21.7154   41.5658   -8.0711 H   0  0  0  0  0  0  0  0  0  0  0  0
   22.5172   41.1698   -4.6030 H   0  0  0  0  0  0  0  0  0  0  0  0
   22.1039   39.6873   -5.1612 H   0  0  0  0  0  0  0  0  0  0  0  0
   19.9058   40.8488   -4.1325 H   0  0  0  0  0  0  0  0  0  0  0  0
   18.9207   43.0735   -5.6910 H   0  0  0  0  0  0  0  0  0  0  0  0
   19.3622   42.4863   -7.2461 H   0  0  0  0  0  0  0  0  0  0  0  0
   20.5722   45.6496   -6.1604 H   0  0  0  0  0  0  0  0  0  0  0  0
   18.3300   47.6556   -8.9706 H   0  0  0  0  0  0  0  0  0  0  0  0
   17.1486   45.6584   -9.4441 H   0  0  0  0  0  0  0  0  0  0  0  0
   17.7100   43.6483   -8.3199 H   0  0  0  0  0  0  0  0  0  0  0  0
   19.1088   49.4241   -7.8786 H   0  0  0  0  0  0  0  0  0  0  0  0
   20.2251   48.9181   -8.9900 H   0  0  0  0  0  0  0  0  0  0  0  0
   21.2986   50.1536   -6.6941 H   0  0  0  0  0  0  0  0  0  0  0  0
   20.4811   51.1411   -7.7529 H   0  0  0  0  0  0  0  0  0  0  0  0
   22.5603   51.3652   -8.5308 H   0  0  0  0  0  0  0  0  0  0  0  0
   21.9865   50.1039   -9.4510 H   0  0  0  0  0  0  0  0  0  0  0  0
   23.5649   49.6200   -7.1115 H   0  0  0  0  0  0  0  0  0  0  0  0
   24.2470   49.8110   -8.6002 H   0  0  0  0  0  0  0  0  0  0  0  0
  1  2  1  0  0  0  0
  1 35  1  0  0  0  0
  1 36  1  0  0  0  0
  1 37  1  0  0  0  0
  2  3  1  0  0  0  0
  2  4  1  0  0  0  0
  3 38  1  0  0  0  0
  3 39  1  0  0  0  0
  3 40  1  0  0  0  0
  4  5  2  0  0  0  0
  4  6  1  0  0  0  0
  6  7  2  0  0  0  0
  6  8  1  0  0  0  0
  7 11  1  0  0  0  0
  7 41  1  0  0  0  0
  8  9  2  0  0  0  0
  8 42  1  0  0  0  0
  9 10  1  0  0  0  0
  9 12  1  0  0  0  0
 10 11  2  0  0  0  0
 10 43  1  0  0  0  0
 11 32  1  0  0  0  0
 12 13  2  0  0  0  0
 12 14  1  0  0  0  0
 14 15  1  0  0  0  0
 14 44  1  0  0  0  0
 15 16  1  0  0  0  0
 15 20  1  0  0  0  0
 15 33  1  1  0  0  0
 16 17  1  0  0  0  0
 16 18  1  0  0  0  0
 16 34  1  6  0  0  0
 17 45  1  0  0  0  0
 18 19  1  0  0  0  0
 18 46  1  0  0  0  0
 18 47  1  0  0  0  0
 19 48  1  0  0  0  0
 20 21  1  0  0  0  0
 20 49  1  0  0  0  0
 20 50  1  0  0  0  0
 21 22  2  0  0  0  0
 21 26  1  0  0  0  0
 22 23  1  0  0  0  0
 22 51  1  0  0  0  0
 23 24  2  0  0  0  0
 23 27  1  0  0  0  0
 24 25  1  0  0  0  0
 24 52  1  0  0  0  0
 25 26  2  0  0  0  0
 25 53  1  0  0  0  0
 26 54  1  0  0  0  0
 27 28  1  0  0  0  0
 28 29  1  0  0  0  0
 28 55  1  0  0  0  0
 28 56  1  0  0  0  0
 29 30  1  0  0  0  0
 29 57  1  0  0  0  0
 29 58  1  0  0  0  0
 30 31  1  0  0  0  0
 30 59  1  0  0  0  0
 30 60  1  0  0  0  0
 31 32  1  0  0  0  0
 31 61  1  0  0  0  0
 31 62  1  0  0  0  0
M  END
