BACE_6:1_D
 OpenBabel10051815513D

 83 85  0  0  1  0  0  0  0  0999 V2000
   14.1656   41.9683   -8.3306 C   0  0  0  0  0  0  0  0  0  0  0  0
   15.5133   41.7769   -7.6099 C   0  0  0  0  0  0  0  0  0  0  0  0
   16.5900   41.4576   -8.5682 N   0  0  0  0  0  0  0  0  0  0  0  0
   16.5228   40.1309   -9.2092 C   0  0  0  0  0  0  0  0  0  0  0  0
   17.1467   38.9739   -8.3998 C   0  0  0  0  0  0  0  0  0  0  0  0
   18.6880   39.0325   -8.3088 C   0  0  0  0  0  0  0  0  0  0  0  0
   19.1888   39.9420   -7.1659 C   0  0  0  0  0  0  0  0  0  0  0  0
   20.6572   39.6126   -6.8300 C   0  0  0  0  0  0  0  0  0  0  0  0
   21.2183   40.5282   -5.7169 C   0  0  2  0  0  0  0  0  0  0  0  0
   21.8082   41.8470   -6.2772 C   0  0  0  0  0  0  0  0  0  0  0  0
   21.3640   43.1127   -5.5056 C   0  0  2  0  0  0  0  0  0  0  0  0
   21.9002   44.2345   -6.3003 N   0  0  0  0  0  0  0  0  0  0  0  0
   21.1146   45.1512   -6.9126 C   0  0  0  0  0  0  0  0  0  0  0  0
   21.5565   46.2212   -7.3224 O   0  0  0  0  0  0  0  0  0  0  0  0
   19.6702   44.9259   -7.1676 C   0  0  0  0  0  0  0  0  0  0  0  0
   18.7130   45.8411   -6.7577 C   0  0  0  0  0  0  0  0  0  0  0  0
   17.3837   45.6166   -7.0281 C   0  0  0  0  0  0  0  0  0  0  0  0
   16.9923   44.4852   -7.7059 C   0  0  0  0  0  0  0  0  0  0  0  0
   17.9264   43.5473   -8.1265 C   0  0  0  0  0  0  0  0  0  0  0  0
   19.2589   43.8002   -7.8546 C   0  0  0  0  0  0  0  0  0  0  0  0
   17.6171   42.2930   -8.8707 C   0  0  0  0  0  0  0  0  0  0  0  0
   18.4237   42.0375   -9.7635 O   0  0  0  0  0  0  0  0  0  0  0  0
   21.9802   43.1673   -4.0844 C   0  0  1  0  0  0  0  0  0  0  0  0
   23.0327   44.2830   -3.8927 C   0  0  0  0  0  0  0  0  0  0  0  0
   24.2925   44.0690   -4.6909 N   0  3  0  0  0  0  0  0  0  0  0  0
   24.8369   45.2993   -5.3722 C   0  0  0  0  0  0  0  0  0  0  0  0
   25.5232   44.9910   -6.6962 C   0  0  0  0  0  0  0  0  0  0  0  0
   26.8567   45.2780   -6.8841 C   0  0  0  0  0  0  0  0  0  0  0  0
   27.4597   45.0002   -8.0892 C   0  0  0  0  0  0  0  0  0  0  0  0
   26.7301   44.4367   -9.1106 C   0  0  0  0  0  0  0  0  0  0  0  0
   25.3938   44.1431   -8.9353 C   0  0  0  0  0  0  0  0  0  0  0  0
   24.8009   44.4233   -7.7233 C   0  0  0  0  0  0  0  0  0  0  0  0
   24.5530   43.5261  -10.0471 C   0  0  0  0  0  0  0  0  0  0  0  0
   24.6588   44.3027  -11.3717 C   0  0  0  0  0  0  0  0  0  0  0  0
   24.8681   42.0448  -10.3221 C   0  0  0  0  0  0  0  0  0  0  0  0
   20.9521   43.3816   -3.1061 O   0  0  0  0  0  0  0  0  0  0  0  0
   22.3343   39.7623   -4.9822 C   0  0  0  0  0  0  0  0  0  0  0  0
   20.4655   40.7696   -5.1045 H   0  0  0  0  0  0  0  0  0  0  0  0
   20.3708   43.1341   -5.3916 H   0  0  0  0  0  0  0  0  0  0  0  0
   22.4369   42.2855   -3.9670 H   0  0  0  0  0  0  0  0  0  0  0  0
   13.6079   41.1485   -8.2010 H   0  0  0  0  0  0  0  0  0  0  0  0
   13.6900   42.7624   -7.9524 H   0  0  0  0  0  0  0  0  0  0  0  0
   14.3241   42.1182   -9.3065 H   0  0  0  0  0  0  0  0  0  0  0  0
   15.4288   41.0306   -6.9497 H   0  0  0  0  0  0  0  0  0  0  0  0
   15.7478   42.6305   -7.1447 H   0  0  0  0  0  0  0  0  0  0  0  0
   16.9965   40.1867  -10.0881 H   0  0  0  0  0  0  0  0  0  0  0  0
   15.5502   39.9141   -9.2935 H   0  0  0  0  0  0  0  0  0  0  0  0
   16.8869   38.1102   -8.8314 H   0  0  0  0  0  0  0  0  0  0  0  0
   16.7992   39.0538   -7.4655 H   0  0  0  0  0  0  0  0  0  0  0  0
   19.0473   39.3782   -9.1757 H   0  0  0  0  0  0  0  0  0  0  0  0
   19.0123   38.1061   -8.1172 H   0  0  0  0  0  0  0  0  0  0  0  0
   18.6213   39.7991   -6.3550 H   0  0  0  0  0  0  0  0  0  0  0  0
   19.1276   40.8966   -7.4574 H   0  0  0  0  0  0  0  0  0  0  0  0
   21.2115   39.7262   -7.6545 H   0  0  0  0  0  0  0  0  0  0  0  0
   20.6933   38.6697   -6.4989 H   0  0  0  0  0  0  0  0  0  0  0  0
   21.5227   41.9407   -7.2310 H   0  0  0  0  0  0  0  0  0  0  0  0
   22.8015   41.7839   -6.1798 H   0  0  0  0  0  0  0  0  0  0  0  0
   22.7742   44.3393   -6.3341 H   0  0  0  0  0  0  0  0  0  0  0  0
   18.9897   46.6659   -6.2646 H   0  0  0  0  0  0  0  0  0  0  0  0
   16.6972   46.2798   -6.7303 H   0  0  0  0  0  0  0  0  0  0  0  0
   16.0223   44.3361   -7.8983 H   0  0  0  0  0  0  0  0  0  0  0  0
   19.9481   43.1458   -8.1660 H   0  0  0  0  0  0  0  0  0  0  0  0
   23.2739   44.3285   -2.9233 H   0  0  0  0  0  0  0  0  0  0  0  0
   22.6210   45.1332   -4.2205 H   0  0  0  0  0  0  0  0  0  0  0  0
   24.1253   43.4367   -5.3237 H   0  0  0  0  0  0  0  0  0  0  0  0
   24.9379   43.6942   -4.1684 H   0  0  0  0  0  0  0  0  0  0  0  0
   25.4974   45.7372   -4.7624 H   0  0  0  0  0  0  0  0  0  0  0  0
   24.0617   45.8990   -5.5709 H   0  0  0  0  0  0  0  0  0  0  0  0
   27.3879   45.6891   -6.1433 H   0  0  0  0  0  0  0  0  0  0  0  0
   28.4287   45.2080   -8.2228 H   0  0  0  0  0  0  0  0  0  0  0  0
   27.1715   44.2388   -9.9858 H   0  0  0  0  0  0  0  0  0  0  0  0
   23.8331   44.2118   -7.5872 H   0  0  0  0  0  0  0  0  0  0  0  0
   23.6187   43.5860   -9.6960 H   0  0  0  0  0  0  0  0  0  0  0  0
   24.9070   43.6672  -12.1027 H   0  0  0  0  0  0  0  0  0  0  0  0
   23.7806   44.7322  -11.5823 H   0  0  0  0  0  0  0  0  0  0  0  0
   25.3575   45.0135  -11.2902 H   0  0  0  0  0  0  0  0  0  0  0  0
   25.0681   41.9297  -11.2951 H   0  0  0  0  0  0  0  0  0  0  0  0
   25.6591   41.7613   -9.7799 H   0  0  0  0  0  0  0  0  0  0  0  0
   24.0817   41.4809  -10.0699 H   0  0  0  0  0  0  0  0  0  0  0  0
   20.4357   44.2238   -3.2965 H   0  0  0  0  0  0  0  0  0  0  0  0
   23.1815   40.2910   -5.0354 H   0  0  0  0  0  0  0  0  0  0  0  0
   22.0793   39.6303   -4.0243 H   0  0  0  0  0  0  0  0  0  0  0  0
   22.4668   38.8681   -5.4098 H   0  0  0  0  0  0  0  0  0  0  0  0
  1  2  1  0  0  0  0
  1 41  1  0  0  0  0
  1 42  1  0  0  0  0
  1 43  1  0  0  0  0
  2  3  1  0  0  0  0
  2 44  1  0  0  0  0
  2 45  1  0  0  0  0
  3  4  1  0  0  0  0
  3 21  1  0  0  0  0
  4  5  1  0  0  0  0
  4 46  1  0  0  0  0
  4 47  1  0  0  0  0
  5  6  1  0  0  0  0
  5 48  1  0  0  0  0
  5 49  1  0  0  0  0
  6  7  1  0  0  0  0
  6 50  1  0  0  0  0
  6 51  1  0  0  0  0
  7  8  1  0  0  0  0
  7 52  1  0  0  0  0
  7 53  1  0  0  0  0
  8  9  1  0  0  0  0
  8 54  1  0  0  0  0
  8 55  1  0  0  0  0
  9 10  1  0  0  0  0
  9 37  1  0  0  0  0
  9 38  1  1  0  0  0
 10 11  1  0  0  0  0
 10 56  1  0  0  0  0
 10 57  1  0  0  0  0
 11 12  1  0  0  0  0
 11 23  1  0  0  0  0
 11 39  1  1  0  0  0
 12 13  1  0  0  0  0
 12 58  1  0  0  0  0
 13 14  2  0  0  0  0
 13 15  1  0  0  0  0
 15 16  2  0  0  0  0
 15 20  1  0  0  0  0
 16 17  1  0  0  0  0
 16 59  1  0  0  0  0
 17 18  2  0  0  0  0
 17 60  1  0  0  0  0
 18 19  1  0  0  0  0
 18 61  1  0  0  0  0
 19 20  2  0  0  0  0
 19 21  1  0  0  0  0
 20 62  1  0  0  0  0
 21 22  2  0  0  0  0
 23 24  1  0  0  0  0
 23 36  1  0  0  0  0
 23 40  1  1  0  0  0
 24 25  1  0  0  0  0
 24 63  1  0  0  0  0
 24 64  1  0  0  0  0
 25 26  1  0  0  0  0
 25 65  1  0  0  0  0
 25 66  1  0  0  0  0
 26 27  1  0  0  0  0
 26 67  1  0  0  0  0
 26 68  1  0  0  0  0
 27 28  2  0  0  0  0
 27 32  1  0  0  0  0
 28 29  1  0  0  0  0
 28 69  1  0  0  0  0
 29 30  2  0  0  0  0
 29 70  1  0  0  0  0
 30 31  1  0  0  0  0
 30 71  1  0  0  0  0
 31 32  2  0  0  0  0
 31 33  1  0  0  0  0
 32 72  1  0  0  0  0
 33 34  1  0  0  0  0
 33 35  1  0  0  0  0
 33 73  1  0  0  0  0
 34 74  1  0  0  0  0
 34 75  1  0  0  0  0
 34 76  1  0  0  0  0
 35 77  1  0  0  0  0
 35 78  1  0  0  0  0
 35 79  1  0  0  0  0
 36 80  1  0  0  0  0
 37 81  1  0  0  0  0
 37 82  1  0  0  0  0
 37 83  1  0  0  0  0
M  CHG  1  25   1
M  END
