BACE_11:1_D
 OpenBabel10051815513D

 81 83  0  0  1  0  0  0  0  0999 V2000
   15.1767   44.7394   -8.0720 C   0  0  0  0  0  0  0  0  0  0  0  0
   16.6977   44.5327   -7.9246 C   0  0  1  0  0  0  0  0  0  0  0  0
   17.0800   43.2178   -8.5889 C   0  0  0  0  0  0  0  0  0  0  0  0
   17.5830   43.1827   -9.7031 O   0  0  0  0  0  0  0  0  0  0  0  0
   16.8104   42.1299   -7.8408 N   0  0  0  0  0  0  0  0  0  0  0  0
   16.9952   40.7835   -8.4174 C   0  0  1  0  0  0  0  0  0  0  0  0
   17.4224   39.6704   -7.4191 C   0  0  0  0  0  0  0  0  0  0  0  0
   18.9073   39.3313   -7.4544 C   0  0  0  0  0  0  0  0  0  0  0  0
   19.4366   38.4757   -8.3966 C   0  0  0  0  0  0  0  0  0  0  0  0
   20.7922   38.2296   -8.4270 C   0  0  0  0  0  0  0  0  0  0  0  0
   21.6325   38.8536   -7.5339 C   0  0  0  0  0  0  0  0  0  0  0  0
   21.1198   39.7231   -6.5903 C   0  0  0  0  0  0  0  0  0  0  0  0
   19.7484   39.9132   -6.5384 C   0  0  0  0  0  0  0  0  0  0  0  0
   21.9416   40.3720   -5.7495 O   0  0  0  0  0  0  0  0  0  0  0  0
   22.1148   41.8080   -5.9222 C   0  0  0  0  0  0  0  0  0  0  0  0
   20.7800   42.5725   -5.8385 C   0  0  0  0  0  0  0  0  0  0  0  0
   20.7793   44.0968   -6.0383 C   0  0  0  0  0  0  0  0  0  0  0  0
   19.3021   44.3904   -6.3725 C   0  0  0  0  0  0  0  0  0  0  0  0
   18.8970   45.8674   -6.5070 C   0  0  0  0  0  0  0  0  0  0  0  0
   18.5539   46.2561   -7.9337 C   0  0  0  0  0  0  0  0  0  0  0  0
   19.2405   47.1052   -8.4855 O   0  0  0  0  0  0  0  0  0  0  0  0
   17.4767   45.6596   -8.5056 N   0  0  0  0  0  0  0  0  0  0  0  0
   17.0516   46.1321   -9.8347 C   0  0  0  0  0  0  0  0  0  0  0  0
   15.6449   40.4716   -9.1022 C   0  0  1  0  0  0  0  0  0  0  0  0
   14.5411   40.0776   -8.0901 C   0  0  0  0  0  0  0  0  0  0  0  0
   13.4794   41.1424   -7.9738 N   0  3  0  0  0  0  0  0  0  0  0  0
   12.0584   40.6810   -8.1866 C   0  0  0  0  0  0  0  0  0  0  0  0
   11.7690   40.2685   -9.6239 C   0  0  0  0  0  0  0  0  0  0  0  0
   11.6693   41.2236  -10.6114 C   0  0  0  0  0  0  0  0  0  0  0  0
   11.4163   40.8532  -11.9114 C   0  0  0  0  0  0  0  0  0  0  0  0
   11.2679   39.5233  -12.2298 C   0  0  0  0  0  0  0  0  0  0  0  0
   11.3719   38.5565  -11.2536 C   0  0  0  0  0  0  0  0  0  0  0  0
   11.6211   38.9389   -9.9512 C   0  0  0  0  0  0  0  0  0  0  0  0
   11.2205   37.0922  -11.6469 C   0  0  0  0  0  0  0  0  0  0  0  0
   10.1804   36.3239  -10.8131 C   0  0  0  0  0  0  0  0  0  0  0  0
   12.5534   36.3255  -11.5881 C   0  0  0  0  0  0  0  0  0  0  0  0
   15.2238   41.5760   -9.9166 O   0  0  0  0  0  0  0  0  0  0  0  0
   16.9213   44.5036   -6.9504 H   0  0  0  0  0  0  0  0  0  0  0  0
   17.7707   40.7894   -9.0488 H   0  0  0  0  0  0  0  0  0  0  0  0
   15.7925   39.6759   -9.6897 H   0  0  0  0  0  0  0  0  0  0  0  0
   14.7118   43.8713   -7.8981 H   0  0  0  0  0  0  0  0  0  0  0  0
   14.8639   45.4262   -7.4158 H   0  0  0  0  0  0  0  0  0  0  0  0
   14.9679   45.0549   -8.9976 H   0  0  0  0  0  0  0  0  0  0  0  0
   16.4839   42.2146   -7.0277 H   0  0  0  0  0  0  0  0  0  0  0  0
   16.9044   38.8418   -7.6316 H   0  0  0  0  0  0  0  0  0  0  0  0
   17.2322   40.0208   -6.5020 H   0  0  0  0  0  0  0  0  0  0  0  0
   18.8347   38.0320   -9.0606 H   0  0  0  0  0  0  0  0  0  0  0  0
   21.1672   37.5939   -9.1017 H   0  0  0  0  0  0  0  0  0  0  0  0
   22.6163   38.6776   -7.5679 H   0  0  0  0  0  0  0  0  0  0  0  0
   19.3622   40.4877   -5.8168 H   0  0  0  0  0  0  0  0  0  0  0  0
   22.5301   41.9780   -6.8158 H   0  0  0  0  0  0  0  0  0  0  0  0
   22.7008   42.1364   -5.1813 H   0  0  0  0  0  0  0  0  0  0  0  0
   20.3947   42.3933   -4.9332 H   0  0  0  0  0  0  0  0  0  0  0  0
   20.2588   42.2299   -6.6201 H   0  0  0  0  0  0  0  0  0  0  0  0
   21.3825   44.3646   -6.7896 H   0  0  0  0  0  0  0  0  0  0  0  0
   21.1148   44.6027   -5.2436 H   0  0  0  0  0  0  0  0  0  0  0  0
   18.7418   43.9860   -5.6496 H   0  0  0  0  0  0  0  0  0  0  0  0
   19.1593   43.9997   -7.2819 H   0  0  0  0  0  0  0  0  0  0  0  0
   19.6551   46.4380   -6.1913 H   0  0  0  0  0  0  0  0  0  0  0  0
   18.0759   46.0057   -5.9531 H   0  0  0  0  0  0  0  0  0  0  0  0
   17.6621   46.8672  -10.1296 H   0  0  0  0  0  0  0  0  0  0  0  0
   17.0915   45.3779  -10.4901 H   0  0  0  0  0  0  0  0  0  0  0  0
   16.1124   46.4721   -9.7867 H   0  0  0  0  0  0  0  0  0  0  0  0
   14.9590   39.9348   -7.1929 H   0  0  0  0  0  0  0  0  0  0  0  0
   14.1041   39.2403   -8.4186 H   0  0  0  0  0  0  0  0  0  0  0  0
   13.6653   41.8182   -8.5540 H   0  0  0  0  0  0  0  0  0  0  0  0
   13.5378   41.5410   -7.1570 H   0  0  0  0  0  0  0  0  0  0  0  0
   11.4403   41.4262   -7.9369 H   0  0  0  0  0  0  0  0  0  0  0  0
   11.9202   39.8729   -7.6140 H   0  0  0  0  0  0  0  0  0  0  0  0
   11.7813   42.1904  -10.3821 H   0  0  0  0  0  0  0  0  0  0  0  0
   11.3403   41.5501  -12.6246 H   0  0  0  0  0  0  0  0  0  0  0  0
   11.0834   39.2565  -13.1757 H   0  0  0  0  0  0  0  0  0  0  0  0
   11.6950   38.2427   -9.2371 H   0  0  0  0  0  0  0  0  0  0  0  0
   10.8942   37.1334  -12.5913 H   0  0  0  0  0  0  0  0  0  0  0  0
   10.6107   35.5075  -10.4278 H   0  0  0  0  0  0  0  0  0  0  0  0
    9.8423   36.9068  -10.0742 H   0  0  0  0  0  0  0  0  0  0  0  0
    9.4122   36.0578  -11.3953 H   0  0  0  0  0  0  0  0  0  0  0  0
   12.4346   35.5088  -11.0235 H   0  0  0  0  0  0  0  0  0  0  0  0
   12.8311   36.0594  -12.5112 H   0  0  0  0  0  0  0  0  0  0  0  0
   13.2609   36.9103  -11.1913 H   0  0  0  0  0  0  0  0  0  0  0  0
   14.2505   41.5008  -10.1601 H   0  0  0  0  0  0  0  0  0  0  0  0
  1  2  1  0  0  0  0
  1 41  1  0  0  0  0
  1 42  1  0  0  0  0
  1 43  1  0  0  0  0
  2  3  1  0  0  0  0
  2 22  1  0  0  0  0
  2 38  1  1  0  0  0
  3  4  2  0  0  0  0
  3  5  1  0  0  0  0
  5  6  1  0  0  0  0
  5 44  1  0  0  0  0
  6  7  1  0  0  0  0
  6 24  1  0  0  0  0
  6 39  1  6  0  0  0
  7  8  1  0  0  0  0
  7 45  1  0  0  0  0
  7 46  1  0  0  0  0
  8  9  2  0  0  0  0
  8 13  1  0  0  0  0
  9 10  1  0  0  0  0
  9 47  1  0  0  0  0
 10 11  2  0  0  0  0
 10 48  1  0  0  0  0
 11 12  1  0  0  0  0
 11 49  1  0  0  0  0
 12 13  2  0  0  0  0
 12 14  1  0  0  0  0
 13 50  1  0  0  0  0
 14 15  1  0  0  0  0
 15 16  1  0  0  0  0
 15 51  1  0  0  0  0
 15 52  1  0  0  0  0
 16 17  1  0  0  0  0
 16 53  1  0  0  0  0
 16 54  1  0  0  0  0
 17 18  1  0  0  0  0
 17 55  1  0  0  0  0
 17 56  1  0  0  0  0
 18 19  1  0  0  0  0
 18 57  1  0  0  0  0
 18 58  1  0  0  0  0
 19 20  1  0  0  0  0
 19 59  1  0  0  0  0
 19 60  1  0  0  0  0
 20 21  2  0  0  0  0
 20 22  1  0  0  0  0
 22 23  1  0  0  0  0
 23 61  1  0  0  0  0
 23 62  1  0  0  0  0
 23 63  1  0  0  0  0
 24 25  1  0  0  0  0
 24 37  1  0  0  0  0
 24 40  1  6  0  0  0
 25 26  1  0  0  0  0
 25 64  1  0  0  0  0
 25 65  1  0  0  0  0
 26 27  1  0  0  0  0
 26 66  1  0  0  0  0
 26 67  1  0  0  0  0
 27 28  1  0  0  0  0
 27 68  1  0  0  0  0
 27 69  1  0  0  0  0
 28 29  2  0  0  0  0
 28 33  1  0  0  0  0
 29 30  1  0  0  0  0
 29 70  1  0  0  0  0
 30 31  2  0  0  0  0
 30 71  1  0  0  0  0
 31 32  1  0  0  0  0
 31 72  1  0  0  0  0
 32 33  2  0  0  0  0
 32 34  1  0  0  0  0
 33 73  1  0  0  0  0
 34 35  1  0  0  0  0
 34 36  1  0  0  0  0
 34 74  1  0  0  0  0
 35 75  1  0  0  0  0
 35 76  1  0  0  0  0
 35 77  1  0  0  0  0
 36 78  1  0  0  0  0
 36 79  1  0  0  0  0
 36 80  1  0  0  0  0
 37 81  1  0  0  0  0
M  CHG  1  26   1
M  END
