BACE_1:1_D
 OpenBabel10051815513D

 87 88  0  0  1  0  0  0  0  0999 V2000
   10.7395   35.7321  -13.6929 C   0  0  0  0  0  0  0  0  0  0  0  0
   11.8021   34.8531  -13.0173 C   0  0  0  0  0  0  0  0  0  0  0  0
   12.1890   35.4666  -11.6617 C   0  0  0  0  0  0  0  0  0  0  0  0
   12.5428   36.9561  -11.8170 C   0  0  0  0  0  0  0  0  0  0  0  0
   12.9047   37.5810  -10.5366 N   0  0  0  0  0  0  0  0  0  0  0  0
   12.8111   38.9138  -10.3917 C   0  0  0  0  0  0  0  0  0  0  0  0
   12.5099   39.6943  -11.2850 O   0  0  0  0  0  0  0  0  0  0  0  0
   13.0853   39.3637   -8.9700 C   0  0  2  0  0  0  0  0  0  0  0  0
   11.8561   40.0976   -8.3972 C   0  0  0  0  0  0  0  0  0  0  0  0
   14.3798   40.1964   -8.8248 C   0  0  0  0  0  0  0  0  0  0  0  0
   15.5119   39.4711   -8.0633 C   0  0  1  0  0  0  0  0  0  0  0  0
   16.9139   39.8191   -8.6110 C   0  0  2  0  0  0  0  0  0  0  0  0
   17.9831   38.7855   -8.1656 C   0  0  0  0  0  0  0  0  0  0  0  0
   19.4438   39.2554   -8.3677 C   0  0  1  0  0  0  0  0  0  0  0  0
   20.4218   38.3873   -7.5370 C   0  0  0  0  0  0  0  0  0  0  0  0
   21.5825   39.2291   -6.9643 C   0  0  0  0  0  0  0  0  0  0  0  0
   21.1559   39.9784   -5.6787 C   0  0  0  0  0  0  0  0  0  0  0  0
   21.8710   41.3385   -5.5320 C   0  0  0  0  0  0  0  0  0  0  0  0
   21.1314   42.4333   -6.3321 C   0  0  0  0  0  0  0  0  0  0  0  0
   21.6083   43.8294   -6.4128 N   0  0  0  0  0  0  0  0  0  0  0  0
   20.8340   44.8592   -6.8545 C   0  0  0  0  0  0  0  0  0  0  0  0
   21.2637   46.0113   -6.8929 O   0  0  0  0  0  0  0  0  0  0  0  0
   19.4154   44.7395   -7.3254 C   0  0  0  0  0  0  0  0  0  0  0  0
   18.8232   43.5878   -7.8221 C   0  0  0  0  0  0  0  0  0  0  0  0
   17.5086   43.5552   -8.2512 C   0  0  0  0  0  0  0  0  0  0  0  0
   16.7584   44.7175   -8.2088 C   0  0  0  0  0  0  0  0  0  0  0  0
   17.3121   45.8901   -7.7258 C   0  0  0  0  0  0  0  0  0  0  0  0
   18.6236   45.8807   -7.2927 C   0  0  0  0  0  0  0  0  0  0  0  0
   16.6267   47.0412   -7.6601 O   0  0  0  0  0  0  0  0  0  0  0  0
   17.0638   48.1589   -8.4593 C   0  0  0  0  0  0  0  0  0  0  0  0
   17.4330   49.3449   -7.5553 C   0  0  0  0  0  0  0  0  0  0  0  0
   16.9401   42.2767   -8.7456 C   0  0  0  0  0  0  0  0  0  0  0  0
   16.2486   42.3176   -9.7607 O   0  0  0  0  0  0  0  0  0  0  0  0
   17.2193   41.1494   -8.0571 N   0  0  0  0  0  0  0  0  0  0  0  0
   23.0094   44.1029   -6.0387 C   0  0  0  0  0  0  0  0  0  0  0  0
   23.1369   44.3057   -4.5200 C   0  0  0  0  0  0  0  0  0  0  0  0
   19.8357   39.2090   -9.8579 C   0  0  0  0  0  0  0  0  0  0  0  0
   15.4491   39.8360   -6.6777 O   0  0  0  0  0  0  0  0  0  0  0  0
   13.2469   38.5393   -8.4275 H   0  0  0  0  0  0  0  0  0  0  0  0
   15.3761   38.4880   -8.1862 H   0  0  0  0  0  0  0  0  0  0  0  0
   16.9250   39.8073   -9.6109 H   0  0  0  0  0  0  0  0  0  0  0  0
   19.5054   40.2017   -8.0503 H   0  0  0  0  0  0  0  0  0  0  0  0
    9.8499   35.2812  -13.6203 H   0  0  0  0  0  0  0  0  0  0  0  0
   10.7027   36.6241  -13.2424 H   0  0  0  0  0  0  0  0  0  0  0  0
   10.9740   35.8633  -14.6561 H   0  0  0  0  0  0  0  0  0  0  0  0
   12.6107   34.7956  -13.6029 H   0  0  0  0  0  0  0  0  0  0  0  0
   11.4323   33.9352  -12.8728 H   0  0  0  0  0  0  0  0  0  0  0  0
   12.9781   34.9764  -11.2916 H   0  0  0  0  0  0  0  0  0  0  0  0
   11.4099   35.3866  -11.0399 H   0  0  0  0  0  0  0  0  0  0  0  0
   11.7544   37.4369  -12.2007 H   0  0  0  0  0  0  0  0  0  0  0  0
   13.3367   37.0199  -12.4218 H   0  0  0  0  0  0  0  0  0  0  0  0
   13.1809   37.0744   -9.8712 H   0  0  0  0  0  0  0  0  0  0  0  0
   12.1449   40.9849   -8.0379 H   0  0  0  0  0  0  0  0  0  0  0  0
   11.1762   40.2313   -9.1183 H   0  0  0  0  0  0  0  0  0  0  0  0
   11.4498   39.5522   -7.6640 H   0  0  0  0  0  0  0  0  0  0  0  0
   14.1592   41.0404   -8.3360 H   0  0  0  0  0  0  0  0  0  0  0  0
   14.7188   40.3673   -9.7500 H   0  0  0  0  0  0  0  0  0  0  0  0
   17.8462   37.9451   -8.6900 H   0  0  0  0  0  0  0  0  0  0  0  0
   17.8598   38.6508   -7.1825 H   0  0  0  0  0  0  0  0  0  0  0  0
   20.7969   37.6682   -8.1220 H   0  0  0  0  0  0  0  0  0  0  0  0
   19.9155   37.9924   -6.7703 H   0  0  0  0  0  0  0  0  0  0  0  0
   21.8728   39.8954   -7.6511 H   0  0  0  0  0  0  0  0  0  0  0  0
   22.3343   38.6117   -6.7325 H   0  0  0  0  0  0  0  0  0  0  0  0
   21.3740   39.4098   -4.8855 H   0  0  0  0  0  0  0  0  0  0  0  0
   20.1733   40.1544   -5.7379 H   0  0  0  0  0  0  0  0  0  0  0  0
   22.8080   41.2567   -5.8715 H   0  0  0  0  0  0  0  0  0  0  0  0
   21.8761   41.5962   -4.5658 H   0  0  0  0  0  0  0  0  0  0  0  0
   20.2072   42.4767   -5.9529 H   0  0  0  0  0  0  0  0  0  0  0  0
   21.2685   42.1214   -7.2723 H   0  0  0  0  0  0  0  0  0  0  0  0
   19.3668   42.7500   -7.8719 H   0  0  0  0  0  0  0  0  0  0  0  0
   15.8112   44.7098   -8.5290 H   0  0  0  0  0  0  0  0  0  0  0  0
   19.0191   46.7293   -6.9415 H   0  0  0  0  0  0  0  0  0  0  0  0
   16.3288   48.4301   -9.0808 H   0  0  0  0  0  0  0  0  0  0  0  0
   17.8698   47.8882   -8.9858 H   0  0  0  0  0  0  0  0  0  0  0  0
   17.2893   49.0838   -6.6009 H   0  0  0  0  0  0  0  0  0  0  0  0
   18.3917   49.5916   -7.6965 H   0  0  0  0  0  0  0  0  0  0  0  0
   16.8581   50.1315   -7.7806 H   0  0  0  0  0  0  0  0  0  0  0  0
   17.5905   41.2084   -7.2603 H   0  0  0  0  0  0  0  0  0  0  0  0
   23.3216   44.9277   -6.5100 H   0  0  0  0  0  0  0  0  0  0  0  0
   23.5717   43.3201   -6.3055 H   0  0  0  0  0  0  0  0  0  0  0  0
   22.2339   44.2086   -4.1016 H   0  0  0  0  0  0  0  0  0  0  0  0
   23.7599   43.6225   -4.1390 H   0  0  0  0  0  0  0  0  0  0  0  0
   23.5001   45.2182   -4.3316 H   0  0  0  0  0  0  0  0  0  0  0  0
   20.6406   38.6253   -9.9648 H   0  0  0  0  0  0  0  0  0  0  0  0
   19.0777   38.8392  -10.3952 H   0  0  0  0  0  0  0  0  0  0  0  0
   20.0430   40.1326  -10.1803 H   0  0  0  0  0  0  0  0  0  0  0  0
   15.7413   39.0771   -6.0856 H   0  0  0  0  0  0  0  0  0  0  0  0
  1  2  1  0  0  0  0
  1 43  1  0  0  0  0
  1 44  1  0  0  0  0
  1 45  1  0  0  0  0
  2  3  1  0  0  0  0
  2 46  1  0  0  0  0
  2 47  1  0  0  0  0
  3  4  1  0  0  0  0
  3 48  1  0  0  0  0
  3 49  1  0  0  0  0
  4  5  1  0  0  0  0
  4 50  1  0  0  0  0
  4 51  1  0  0  0  0
  5  6  1  0  0  0  0
  5 52  1  0  0  0  0
  6  7  2  0  0  0  0
  6  8  1  0  0  0  0
  8  9  1  0  0  0  0
  8 10  1  0  0  0  0
  8 39  1  1  0  0  0
  9 53  1  0  0  0  0
  9 54  1  0  0  0  0
  9 55  1  0  0  0  0
 10 11  1  0  0  0  0
 10 56  1  0  0  0  0
 10 57  1  0  0  0  0
 11 12  1  0  0  0  0
 11 38  1  0  0  0  0
 11 40  1  6  0  0  0
 12 13  1  0  0  0  0
 12 34  1  0  0  0  0
 12 41  1  6  0  0  0
 13 14  1  0  0  0  0
 13 58  1  0  0  0  0
 13 59  1  0  0  0  0
 14 15  1  0  0  0  0
 14 37  1  0  0  0  0
 14 42  1  1  0  0  0
 15 16  1  0  0  0  0
 15 60  1  0  0  0  0
 15 61  1  0  0  0  0
 16 17  1  0  0  0  0
 16 62  1  0  0  0  0
 16 63  1  0  0  0  0
 17 18  1  0  0  0  0
 17 64  1  0  0  0  0
 17 65  1  0  0  0  0
 18 19  1  0  0  0  0
 18 66  1  0  0  0  0
 18 67  1  0  0  0  0
 19 20  1  0  0  0  0
 19 68  1  0  0  0  0
 19 69  1  0  0  0  0
 20 21  1  0  0  0  0
 20 35  1  0  0  0  0
 21 22  2  0  0  0  0
 21 23  1  0  0  0  0
 23 24  2  0  0  0  0
 23 28  1  0  0  0  0
 24 25  1  0  0  0  0
 24 70  1  0  0  0  0
 25 26  2  0  0  0  0
 25 32  1  0  0  0  0
 26 27  1  0  0  0  0
 26 71  1  0  0  0  0
 27 28  2  0  0  0  0
 27 29  1  0  0  0  0
 28 72  1  0  0  0  0
 29 30  1  0  0  0  0
 30 31  1  0  0  0  0
 30 73  1  0  0  0  0
 30 74  1  0  0  0  0
 31 75  1  0  0  0  0
 31 76  1  0  0  0  0
 31 77  1  0  0  0  0
 32 33  2  0  0  0  0
 32 34  1  0  0  0  0
 34 78  1  0  0  0  0
 35 36  1  0  0  0  0
 35 79  1  0  0  0  0
 35 80  1  0  0  0  0
 36 81  1  0  0  0  0
 36 82  1  0  0  0  0
 36 83  1  0  0  0  0
 37 84  1  0  0  0  0
 37 85  1  0  0  0  0
 37 86  1  0  0  0  0
 38 87  1  0  0  0  0
M  END
