BACE_18:1_D
 OpenBabel10051815513D

 66 67  0  0  1  0  0  0  0  0999 V2000
   24.9335   44.9213   -5.4438 O   0  0  0  0  0  0  0  0  0  0  0  0
   24.2813   43.8476   -4.7517 C   0  0  0  0  0  0  0  0  0  0  0  0
   22.9990   44.3209   -4.0383 C   0  0  2  0  0  0  0  0  0  0  0  0
   23.2955   44.4805   -2.6427 O   0  0  0  0  0  0  0  0  0  0  0  0
   21.8119   43.3414   -4.2029 C   0  0  1  0  0  0  0  0  0  0  0  0
   20.7050   43.8332   -5.0492 N   0  0  0  0  0  0  0  0  0  0  0  0
   20.9109   44.5285   -6.1916 C   0  0  0  0  0  0  0  0  0  0  0  0
   22.0052   44.8918   -6.6162 O   0  0  0  0  0  0  0  0  0  0  0  0
   22.2754   41.9581   -4.7215 C   0  0  0  0  0  0  0  0  0  0  0  0
   21.1862   40.8543   -4.6976 C   0  0  2  0  0  0  0  0  0  0  0  0
   20.8031   40.4760   -3.2517 C   0  0  0  0  0  0  0  0  0  0  0  0
   21.7138   39.5929   -5.4269 C   0  0  0  0  0  0  0  0  0  0  0  0
   21.3374   39.5809   -6.9250 C   0  0  0  0  0  0  0  0  0  0  0  0
   19.9886   38.8695   -7.1587 C   0  0  0  0  0  0  0  0  0  0  0  0
   19.5769   38.9600   -8.6478 C   0  0  0  0  0  0  0  0  0  0  0  0
   18.2131   39.6497   -8.8744 C   0  0  0  0  0  0  0  0  0  0  0  0
   18.2010   41.0883   -8.3223 C   0  0  0  0  0  0  0  0  0  0  0  0
   17.2286   42.0080   -9.0924 C   0  0  0  0  0  0  0  0  0  0  0  0
   16.7991   43.1950   -8.3742 O   0  0  0  0  0  0  0  0  0  0  0  0
   17.6977   44.1510   -8.0918 C   0  0  0  0  0  0  0  0  0  0  0  0
   18.8011   43.8924   -7.3025 C   0  0  0  0  0  0  0  0  0  0  0  0
   19.7326   44.8740   -7.0217 C   0  0  0  0  0  0  0  0  0  0  0  0
   17.5059   45.4354   -8.5633 C   0  0  0  0  0  0  0  0  0  0  0  0
   18.4169   46.4470   -8.2891 C   0  0  0  0  0  0  0  0  0  0  0  0
   19.5335   46.1475   -7.5239 C   0  0  0  0  0  0  0  0  0  0  0  0
   18.2108   47.8456   -8.7575 C   0  0  0  0  0  0  0  0  0  0  0  0
   18.4476   48.0237   -9.9510 O   0  0  0  0  0  0  0  0  0  0  0  0
   17.8038   48.8469   -7.9377 N   0  0  0  0  0  0  0  0  0  0  0  0
   17.8039   50.2373   -8.4179 C   0  0  0  0  0  0  0  0  0  0  0  0
   17.2968   48.6254   -6.5724 C   0  0  0  0  0  0  0  0  0  0  0  0
   22.7167   45.1836   -4.4579 H   0  0  0  0  0  0  0  0  0  0  0  0
   21.4451   43.2578   -3.2763 H   0  0  0  0  0  0  0  0  0  0  0  0
   20.3734   41.2098   -5.1591 H   0  0  0  0  0  0  0  0  0  0  0  0
   24.3603   45.7479   -5.4598 H   0  0  0  0  0  0  0  0  0  0  0  0
   24.9107   43.4683   -4.0735 H   0  0  0  0  0  0  0  0  0  0  0  0
   24.0230   43.1553   -5.4255 H   0  0  0  0  0  0  0  0  0  0  0  0
   24.2457   44.2264   -2.4347 H   0  0  0  0  0  0  0  0  0  0  0  0
   19.8782   43.6429   -4.8101 H   0  0  0  0  0  0  0  0  0  0  0  0
   23.0423   41.6538   -4.1564 H   0  0  0  0  0  0  0  0  0  0  0  0
   22.5219   42.0867   -5.6821 H   0  0  0  0  0  0  0  0  0  0  0  0
   20.9818   39.5021   -3.1117 H   0  0  0  0  0  0  0  0  0  0  0  0
   21.3457   41.0141   -2.6066 H   0  0  0  0  0  0  0  0  0  0  0  0
   19.8333   40.6667   -3.0995 H   0  0  0  0  0  0  0  0  0  0  0  0
   21.3270   38.7812   -4.9891 H   0  0  0  0  0  0  0  0  0  0  0  0
   22.7118   39.5983   -5.3637 H   0  0  0  0  0  0  0  0  0  0  0  0
   22.0523   39.1059   -7.4381 H   0  0  0  0  0  0  0  0  0  0  0  0
   21.2515   40.5274   -7.2360 H   0  0  0  0  0  0  0  0  0  0  0  0
   19.2853   39.3010   -6.5938 H   0  0  0  0  0  0  0  0  0  0  0  0
   20.0849   37.9058   -6.9100 H   0  0  0  0  0  0  0  0  0  0  0  0
   19.5306   38.0334   -9.0209 H   0  0  0  0  0  0  0  0  0  0  0  0
   20.2659   39.5201   -9.1077 H   0  0  0  0  0  0  0  0  0  0  0  0
   17.5001   39.1185   -8.4167 H   0  0  0  0  0  0  0  0  0  0  0  0
   18.0475   39.6947   -9.8596 H   0  0  0  0  0  0  0  0  0  0  0  0
   19.1243   41.4665   -8.3881 H   0  0  0  0  0  0  0  0  0  0  0  0
   17.8906   41.0468   -7.3726 H   0  0  0  0  0  0  0  0  0  0  0  0
   16.4160   41.4742   -9.3265 H   0  0  0  0  0  0  0  0  0  0  0  0
   17.7324   42.3363   -9.8915 H   0  0  0  0  0  0  0  0  0  0  0  0
   18.9289   42.9749   -6.9260 H   0  0  0  0  0  0  0  0  0  0  0  0
   16.6957   45.6405   -9.1124 H   0  0  0  0  0  0  0  0  0  0  0  0
   20.2052   46.8630   -7.3321 H   0  0  0  0  0  0  0  0  0  0  0  0
   17.4407   50.8300   -7.6991 H   0  0  0  0  0  0  0  0  0  0  0  0
   18.7370   50.5162   -8.6449 H   0  0  0  0  0  0  0  0  0  0  0  0
   17.2340   50.3109   -9.2363 H   0  0  0  0  0  0  0  0  0  0  0  0
   17.0233   49.5037   -6.1802 H   0  0  0  0  0  0  0  0  0  0  0  0
   16.5097   48.0092   -6.6001 H   0  0  0  0  0  0  0  0  0  0  0  0
   18.0134   48.2129   -6.0100 H   0  0  0  0  0  0  0  0  0  0  0  0
  1  2  1  0  0  0  0
  1 34  1  0  0  0  0
  2  3  1  0  0  0  0
  2 35  1  0  0  0  0
  2 36  1  0  0  0  0
  3  4  1  0  0  0  0
  3  5  1  0  0  0  0
  3 31  1  6  0  0  0
  4 37  1  0  0  0  0
  5  6  1  0  0  0  0
  5  9  1  0  0  0  0
  5 32  1  1  0  0  0
  6  7  1  0  0  0  0
  6 38  1  0  0  0  0
  7  8  2  0  0  0  0
  7 22  1  0  0  0  0
  9 10  1  0  0  0  0
  9 39  1  0  0  0  0
  9 40  1  0  0  0  0
 10 11  1  0  0  0  0
 10 12  1  0  0  0  0
 10 33  1  6  0  0  0
 11 41  1  0  0  0  0
 11 42  1  0  0  0  0
 11 43  1  0  0  0  0
 12 13  1  0  0  0  0
 12 44  1  0  0  0  0
 12 45  1  0  0  0  0
 13 14  1  0  0  0  0
 13 46  1  0  0  0  0
 13 47  1  0  0  0  0
 14 15  1  0  0  0  0
 14 48  1  0  0  0  0
 14 49  1  0  0  0  0
 15 16  1  0  0  0  0
 15 50  1  0  0  0  0
 15 51  1  0  0  0  0
 16 17  1  0  0  0  0
 16 52  1  0  0  0  0
 16 53  1  0  0  0  0
 17 18  1  0  0  0  0
 17 54  1  0  0  0  0
 17 55  1  0  0  0  0
 18 19  1  0  0  0  0
 18 56  1  0  0  0  0
 18 57  1  0  0  0  0
 19 20  1  0  0  0  0
 20 21  1  0  0  0  0
 20 23  2  0  0  0  0
 21 22  2  0  0  0  0
 21 58  1  0  0  0  0
 22 25  1  0  0  0  0
 23 24  1  0  0  0  0
 23 59  1  0  0  0  0
 24 25  2  0  0  0  0
 24 26  1  0  0  0  0
 25 60  1  0  0  0  0
 26 27  2  0  0  0  0
 26 28  1  0  0  0  0
 28 29  1  0  0  0  0
 28 30  1  0  0  0  0
 29 61  1  0  0  0  0
 29 62  1  0  0  0  0
 29 63  1  0  0  0  0
 30 64  1  0  0  0  0
 30 65  1  0  0  0  0
 30 66  1  0  0  0  0
M  END
