CatS_275:1_D
 OpenBabel12041818463D

 91 95  0  0  1  0  0  0  0  0999 V2000
   50.7036   -3.5632   36.5742 C   0  0  0  0  0  0  0  0  0  0  0  0
   50.0464   -3.3551   37.9160 C   0  0  0  0  0  0  0  0  0  0  0  0
   50.2377   -4.1125   38.8562 O   0  0  0  0  0  0  0  0  0  0  0  0
   49.2580   -2.2665   37.9154 N   0  0  0  0  0  0  0  0  0  0  0  0
   48.5012   -1.8435   39.1100 C   0  0  1  0  0  0  0  0  0  0  0  0
   47.9625   -0.3987   39.2186 C   0  0  0  0  0  0  0  0  0  0  0  0
   47.2314   -0.1675   40.5641 C   0  0  0  0  0  0  0  0  0  0  0  0
   46.5887   -1.4228   41.1062 N   0  3  1  0  0  0  0  0  0  0  0  0
   46.1305   -2.3451   40.0082 C   0  0  0  0  0  0  0  0  0  0  0  0
   47.3290   -2.8542   39.1755 C   0  0  0  0  0  0  0  0  0  0  0  0
   47.4497   -2.0913   42.1491 C   0  0  0  0  0  0  0  0  0  0  0  0
   47.2544   -1.5553   43.5852 C   0  0  0  0  0  0  0  0  0  0  0  0
   46.6107   -2.8331   44.7015 S   0  0  0  0  0  0  0  0  0  0  0  0
   44.8497   -2.5015   44.8419 C   0  0  0  0  0  0  0  0  0  0  0  0
   43.9999   -3.5501   44.5793 C   0  0  0  0  0  0  0  0  0  0  0  0
   42.6315   -3.3824   44.6537 C   0  0  0  0  0  0  0  0  0  0  0  0
   42.1323   -2.1399   45.0012 C   0  0  0  0  0  0  0  0  0  0  0  0
   42.9887   -1.0991   45.2773 C   0  0  0  0  0  0  0  0  0  0  0  0
   44.3591   -1.2527   45.2008 C   0  0  0  0  0  0  0  0  0  0  0  0
   45.2302   -0.0399   45.5328 C   0  0  0  0  0  0  0  0  0  0  0  0
   46.4210   -0.3653   46.1767 F   0  0  0  0  0  0  0  0  0  0  0  0
   44.5669    0.8598   46.3610 F   0  0  0  0  0  0  0  0  0  0  0  0
   45.5721    0.6449   44.3709 F   0  0  0  0  0  0  0  0  0  0  0  0
   41.7586   -4.4992   44.3450 C   0  0  0  0  0  0  0  0  0  0  0  0
   41.6060   -5.7182   45.0541 C   0  0  0  0  0  0  0  0  0  0  0  0
   40.7024   -6.3768   44.3248 C   0  0  0  0  0  0  0  0  0  0  0  0
   40.2966   -5.6866   43.2295 N   0  0  0  0  0  0  0  0  0  0  0  0
   40.9743   -4.5193   43.2867 N   0  0  0  0  0  0  0  0  0  0  0  0
   39.4065   -6.0952   42.1349 C   0  0  0  0  0  0  0  0  0  0  0  0
   38.4043   -5.0391   41.6346 C   0  0  2  0  0  0  0  0  0  0  0  0
   37.8240   -5.5233   40.2875 C   0  0  0  0  0  0  0  0  0  0  0  0
   36.3958   -6.0016   40.3547 N   0  3  0  0  0  0  0  0  0  0  0  0
   35.4776   -5.2693   39.4074 C   0  0  0  0  0  0  0  0  0  0  0  0
   35.7045   -5.7652   37.9651 C   0  0  0  0  0  0  0  0  0  0  0  0
   35.5536   -7.1958   37.8901 O   0  0  0  0  0  0  0  0  0  0  0  0
   36.5040   -7.8904   38.7187 C   0  0  0  0  0  0  0  0  0  0  0  0
   36.3102   -7.4993   40.1956 C   0  0  0  0  0  0  0  0  0  0  0  0
   39.0569   -3.7697   41.4759 O   0  0  0  0  0  0  0  0  0  0  0  0
   40.2185   -7.7640   44.7009 C   0  0  0  0  0  0  0  0  0  0  0  0
   40.7404   -8.2037   46.0878 C   0  0  0  0  0  0  0  0  0  0  0  0
   42.1365   -7.7889   46.3493 N   0  0  0  0  0  0  0  0  0  0  0  0
   42.2051   -6.3063   46.3318 C   0  0  0  0  0  0  0  0  0  0  0  0
   42.8528   -8.6675   47.5303 S   0  0  0  0  0  0  0  0  0  0  0  0
   44.2198   -8.2442   47.6088 O   0  0  0  0  0  0  0  0  0  0  0  0
   42.7387  -10.0592   47.2122 O   0  0  0  0  0  0  0  0  0  0  0  0
   42.0741   -8.3708   49.1416 C   0  0  0  0  0  0  0  0  0  0  0  0
   37.6665   -4.9222   42.2994 H   0  0  0  0  0  0  0  0  0  0  0  0
   50.4117   -2.8364   35.9525 H   0  0  0  0  0  0  0  0  0  0  0  0
   51.6980   -3.5388   36.6775 H   0  0  0  0  0  0  0  0  0  0  0  0
   50.4368   -4.4526   36.2030 H   0  0  0  0  0  0  0  0  0  0  0  0
   49.1774   -1.7976   37.1729 H   0  0  0  0  0  0  0  0  0  0  0  0
   49.1489   -1.8389   39.8719 H   0  0  0  0  0  0  0  0  0  0  0  0
   47.3257   -0.2299   38.4663 H   0  0  0  0  0  0  0  0  0  0  0  0
   48.7384    0.2305   39.1715 H   0  0  0  0  0  0  0  0  0  0  0  0
   46.5223    0.5245   40.4290 H   0  0  0  0  0  0  0  0  0  0  0  0
   47.9154    0.1299   41.2302 H   0  0  0  0  0  0  0  0  0  0  0  0
   45.8303   -1.1528   41.5337 H   0  0  0  0  0  0  0  0  0  0  0  0
   45.4981   -1.8538   39.4093 H   0  0  0  0  0  0  0  0  0  0  0  0
   45.6755   -3.1328   40.4236 H   0  0  0  0  0  0  0  0  0  0  0  0
   47.6631   -3.7045   39.5821 H   0  0  0  0  0  0  0  0  0  0  0  0
   47.0022   -2.9903   38.2402 H   0  0  0  0  0  0  0  0  0  0  0  0
   48.4079   -1.9629   41.8934 H   0  0  0  0  0  0  0  0  0  0  0  0
   47.1763   -3.0530   42.1677 H   0  0  0  0  0  0  0  0  0  0  0  0
   46.6119   -0.7894   43.5615 H   0  0  0  0  0  0  0  0  0  0  0  0
   48.1461   -1.2634   43.9312 H   0  0  0  0  0  0  0  0  0  0  0  0
   44.3766   -4.4428   44.3320 H   0  0  0  0  0  0  0  0  0  0  0  0
   41.1438   -1.9975   45.0520 H   0  0  0  0  0  0  0  0  0  0  0  0
   42.6104   -0.2113   45.5393 H   0  0  0  0  0  0  0  0  0  0  0  0
   38.8847   -6.8894   42.4462 H   0  0  0  0  0  0  0  0  0  0  0  0
   40.0090   -6.2757   41.3574 H   0  0  0  0  0  0  0  0  0  0  0  0
   38.3922   -6.2757   39.9542 H   0  0  0  0  0  0  0  0  0  0  0  0
   37.8277   -4.7315   39.6768 H   0  0  0  0  0  0  0  0  0  0  0  0
   36.1006   -5.8230   41.1987 H   0  0  0  0  0  0  0  0  0  0  0  0
   35.6633   -4.2879   39.4561 H   0  0  0  0  0  0  0  0  0  0  0  0
   34.5285   -5.4453   39.6685 H   0  0  0  0  0  0  0  0  0  0  0  0
   36.6266   -5.5137   37.6711 H   0  0  0  0  0  0  0  0  0  0  0  0
   35.0250   -5.3392   37.3679 H   0  0  0  0  0  0  0  0  0  0  0  0
   37.4315   -7.6522   38.4305 H   0  0  0  0  0  0  0  0  0  0  0  0
   36.3610   -8.8754   38.6226 H   0  0  0  0  0  0  0  0  0  0  0  0
   35.4146   -7.8153   40.5087 H   0  0  0  0  0  0  0  0  0  0  0  0
   37.0307   -7.9265   40.7418 H   0  0  0  0  0  0  0  0  0  0  0  0
   38.9635   -3.2036   42.3023 H   0  0  0  0  0  0  0  0  0  0  0  0
   40.5360   -8.4159   44.0123 H   0  0  0  0  0  0  0  0  0  0  0  0
   39.2196   -7.7418   44.7412 H   0  0  0  0  0  0  0  0  0  0  0  0
   40.6871   -9.2005   46.1466 H   0  0  0  0  0  0  0  0  0  0  0  0
   40.1675   -7.7556   46.7740 H   0  0  0  0  0  0  0  0  0  0  0  0
   41.7035   -5.9485   47.1194 H   0  0  0  0  0  0  0  0  0  0  0  0
   43.1692   -6.0434   46.3691 H   0  0  0  0  0  0  0  0  0  0  0  0
   41.7168   -9.2355   49.4947 H   0  0  0  0  0  0  0  0  0  0  0  0
   42.7488   -7.9997   49.7797 H   0  0  0  0  0  0  0  0  0  0  0  0
   41.3274   -7.7135   49.0388 H   0  0  0  0  0  0  0  0  0  0  0  0
  1  2  1  0  0  0  0
  1 48  1  0  0  0  0
  1 49  1  0  0  0  0
  1 50  1  0  0  0  0
  2  3  2  0  0  0  0
  2  4  1  0  0  0  0
  4  5  1  0  0  0  0
  4 51  1  0  0  0  0
  5  6  1  0  0  0  0
  5 10  1  0  0  0  0
  5 52  1  1  0  0  0
  6  7  1  0  0  0  0
  6 53  1  0  0  0  0
  6 54  1  0  0  0  0
  7  8  1  0  0  0  0
  7 55  1  0  0  0  0
  7 56  1  0  0  0  0
  8  9  1  0  0  0  0
  8 11  1  0  0  0  0
  8 57  1  1  0  0  0
  9 10  1  0  0  0  0
  9 58  1  0  0  0  0
  9 59  1  0  0  0  0
 10 60  1  0  0  0  0
 10 61  1  0  0  0  0
 11 12  1  0  0  0  0
 11 62  1  0  0  0  0
 11 63  1  0  0  0  0
 12 13  1  0  0  0  0
 12 64  1  0  0  0  0
 12 65  1  0  0  0  0
 13 14  1  0  0  0  0
 14 15  2  0  0  0  0
 14 19  1  0  0  0  0
 15 16  1  0  0  0  0
 15 66  1  0  0  0  0
 16 17  2  0  0  0  0
 16 24  1  0  0  0  0
 17 18  1  0  0  0  0
 17 67  1  0  0  0  0
 18 19  2  0  0  0  0
 18 68  1  0  0  0  0
 19 20  1  0  0  0  0
 20 21  1  0  0  0  0
 20 22  1  0  0  0  0
 20 23  1  0  0  0  0
 24 25  1  0  0  0  0
 24 28  2  0  0  0  0
 25 26  2  0  0  0  0
 25 42  1  0  0  0  0
 26 27  1  0  0  0  0
 26 39  1  0  0  0  0
 27 28  1  0  0  0  0
 27 29  1  0  0  0  0
 29 30  1  0  0  0  0
 29 69  1  0  0  0  0
 29 70  1  0  0  0  0
 30 31  1  0  0  0  0
 30 38  1  0  0  0  0
 30 47  1  1  0  0  0
 31 32  1  0  0  0  0
 31 71  1  0  0  0  0
 31 72  1  0  0  0  0
 32 33  1  0  0  0  0
 32 37  1  0  0  0  0
 32 73  1  0  0  0  0
 33 34  1  0  0  0  0
 33 74  1  0  0  0  0
 33 75  1  0  0  0  0
 34 35  1  0  0  0  0
 34 76  1  0  0  0  0
 34 77  1  0  0  0  0
 35 36  1  0  0  0  0
 36 37  1  0  0  0  0
 36 78  1  0  0  0  0
 36 79  1  0  0  0  0
 37 80  1  0  0  0  0
 37 81  1  0  0  0  0
 38 82  1  0  0  0  0
 39 40  1  0  0  0  0
 39 83  1  0  0  0  0
 39 84  1  0  0  0  0
 40 41  1  0  0  0  0
 40 85  1  0  0  0  0
 40 86  1  0  0  0  0
 41 42  1  0  0  0  0
 41 43  1  0  0  0  0
 42 87  1  0  0  0  0
 42 88  1  0  0  0  0
 43 44  2  0  0  0  0
 43 45  2  0  0  0  0
 43 46  1  0  0  0  0
 46 89  1  0  0  0  0
 46 90  1  0  0  0  0
 46 91  1  0  0  0  0
M  CHG  2   8   1  32   1
M  END
