CatS_284:1_D
 OpenBabel12041818463D

 89 95  0  0  1  0  0  0  0  0999 V2000
   43.2021   -9.2556   47.8469 C   0  0  0  0  0  0  0  0  0  0  0  0
   41.6830   -8.3629   48.2539 S   0  0  0  0  0  0  0  0  0  0  0  0
   40.7159   -9.3203   48.6811 O   0  0  0  0  0  0  0  0  0  0  0  0
   41.9968   -7.3547   49.2137 O   0  0  0  0  0  0  0  0  0  0  0  0
   41.0655   -7.6303   46.9403 N   0  0  0  0  0  0  0  0  0  0  0  0
   40.5978   -8.4710   45.8146 C   0  0  0  0  0  0  0  0  0  0  0  0
   39.7631   -7.6839   44.7719 C   0  0  0  0  0  0  0  0  0  0  0  0
   40.4551   -6.3839   44.4026 C   0  0  0  0  0  0  0  0  0  0  0  0
   41.4467   -5.9019   45.1519 C   0  0  0  0  0  0  0  0  0  0  0  0
   41.8150   -4.7154   44.4887 C   0  0  0  0  0  0  0  0  0  0  0  0
   41.0318   -4.5580   43.4451 N   0  0  0  0  0  0  0  0  0  0  0  0
   40.1653   -5.5902   43.3377 N   0  0  0  0  0  0  0  0  0  0  0  0
   39.1547   -5.7209   42.2764 C   0  0  0  0  0  0  0  0  0  0  0  0
   38.9772   -4.3977   41.5092 C   0  0  0  0  0  0  0  0  0  0  0  0
   37.5452   -4.2783   40.9452 C   0  0  0  0  0  0  0  0  0  0  0  0
   37.2449   -5.3859   39.9668 N   0  3  2  0  0  0  0  0  0  0  0  0
   37.0619   -4.9219   38.5405 C   0  0  0  0  0  0  0  0  0  0  0  0
   35.7467   -5.6430   38.1863 C   0  0  2  0  0  0  0  0  0  0  0  0
   34.9520   -5.4845   39.4865 C   0  0  0  0  0  0  0  0  0  0  0  0
   36.0245   -6.1995   40.3161 C   0  0  1  0  0  0  0  0  0  0  0  0
   36.1075   -7.5180   39.5211 C   0  0  0  0  0  0  0  0  0  0  0  0
   36.0118   -7.0573   38.1595 O   0  0  0  0  0  0  0  0  0  0  0  0
   42.8664   -3.7811   44.8336 C   0  0  0  0  0  0  0  0  0  0  0  0
   43.0157   -3.2372   46.0999 C   0  0  0  0  0  0  0  0  0  0  0  0
   44.0540   -2.3689   46.3613 C   0  0  0  0  0  0  0  0  0  0  0  0
   44.9415   -1.9995   45.3800 C   0  0  0  0  0  0  0  0  0  0  0  0
   44.7884   -2.5324   44.1021 C   0  0  0  0  0  0  0  0  0  0  0  0
   43.7596   -3.4266   43.8521 C   0  0  0  0  0  0  0  0  0  0  0  0
   45.6335   -2.2662   42.9694 C   0  0  0  0  0  0  0  0  0  0  0  0
   46.3088   -2.1546   41.9609 C   0  0  0  0  0  0  0  0  0  0  0  0
   47.0589   -2.1582   40.7325 C   0  0  0  0  0  0  0  0  0  0  0  0
   46.3531   -2.0574   39.5388 C   0  0  0  0  0  0  0  0  0  0  0  0
   47.0181   -2.0940   38.3417 C   0  0  0  0  0  0  0  0  0  0  0  0
   48.3894   -2.2347   38.3185 C   0  0  0  0  0  0  0  0  0  0  0  0
   49.1072   -2.3361   39.4939 C   0  0  0  0  0  0  0  0  0  0  0  0
   48.4411   -2.2883   40.6965 C   0  0  0  0  0  0  0  0  0  0  0  0
   50.6213   -2.5039   39.3922 C   0  0  0  0  0  0  0  0  0  0  0  0
   51.2963   -1.5174   38.4710 N   0  3  0  0  0  0  0  0  0  0  0  0
   52.3135   -2.1234   37.5331 C   0  0  0  0  0  0  0  0  0  0  0  0
   51.9777   -3.5344   37.0693 C   0  0  0  0  0  0  0  0  0  0  0  0
   51.0001   -3.7103   36.1149 C   0  0  0  0  0  0  0  0  0  0  0  0
   50.7023   -4.9692   35.6455 C   0  0  0  0  0  0  0  0  0  0  0  0
   51.3839   -6.0638   36.1287 C   0  0  0  0  0  0  0  0  0  0  0  0
   52.3564   -5.8966   37.0870 C   0  0  0  0  0  0  0  0  0  0  0  0
   52.6495   -4.6374   37.5545 C   0  0  0  0  0  0  0  0  0  0  0  0
   51.0240   -7.6560   35.5311 Cl  0  0  0  0  0  0  0  0  0  0  0  0
   46.2229   -0.8956   45.7587 Cl  0  0  0  0  0  0  0  0  0  0  0  0
   41.9608   -6.5725   46.4124 C   0  0  0  0  0  0  0  0  0  0  0  0
   35.3315   -5.3139   37.3382 H   0  0  0  0  0  0  0  0  0  0  0  0
   35.8996   -6.3150   41.3014 H   0  0  0  0  0  0  0  0  0  0  0  0
   43.3968   -9.1397   46.8728 H   0  0  0  0  0  0  0  0  0  0  0  0
   43.9617   -8.8941   48.3875 H   0  0  0  0  0  0  0  0  0  0  0  0
   43.0878  -10.2270   48.0550 H   0  0  0  0  0  0  0  0  0  0  0  0
   40.0357   -9.2123   46.1816 H   0  0  0  0  0  0  0  0  0  0  0  0
   41.4097   -8.8169   45.3443 H   0  0  0  0  0  0  0  0  0  0  0  0
   38.8619   -7.4819   45.1552 H   0  0  0  0  0  0  0  0  0  0  0  0
   39.6689   -8.2422   43.9475 H   0  0  0  0  0  0  0  0  0  0  0  0
   38.2811   -5.9827   42.6865 H   0  0  0  0  0  0  0  0  0  0  0  0
   39.4626   -6.4203   41.6313 H   0  0  0  0  0  0  0  0  0  0  0  0
   39.6330   -4.3639   40.7551 H   0  0  0  0  0  0  0  0  0  0  0  0
   39.1361   -3.6381   42.1398 H   0  0  0  0  0  0  0  0  0  0  0  0
   37.4486   -3.3971   40.4825 H   0  0  0  0  0  0  0  0  0  0  0  0
   36.9004   -4.3492   41.7063 H   0  0  0  0  0  0  0  0  0  0  0  0
   37.9618   -5.9468   39.9984 H   0  0  0  0  0  0  0  0  0  0  0  0
   37.8173   -5.2142   37.9541 H   0  0  0  0  0  0  0  0  0  0  0  0
   37.0403   -3.9292   38.4216 H   0  0  0  0  0  0  0  0  0  0  0  0
   34.0708   -5.9571   39.4771 H   0  0  0  0  0  0  0  0  0  0  0  0
   34.6564   -4.5705   39.7643 H   0  0  0  0  0  0  0  0  0  0  0  0
   35.3528   -8.1316   39.7533 H   0  0  0  0  0  0  0  0  0  0  0  0
   36.9343   -8.0485   39.7076 H   0  0  0  0  0  0  0  0  0  0  0  0
   42.3694   -3.4752   46.8249 H   0  0  0  0  0  0  0  0  0  0  0  0
   44.1633   -2.0003   47.2844 H   0  0  0  0  0  0  0  0  0  0  0  0
   43.6655   -3.8219   42.9384 H   0  0  0  0  0  0  0  0  0  0  0  0
   45.3582   -1.9578   39.5542 H   0  0  0  0  0  0  0  0  0  0  0  0
   46.5087   -2.0190   37.4845 H   0  0  0  0  0  0  0  0  0  0  0  0
   48.8692   -2.2635   37.4416 H   0  0  0  0  0  0  0  0  0  0  0  0
   48.9563   -2.3476   41.5516 H   0  0  0  0  0  0  0  0  0  0  0  0
   50.8136   -3.4276   39.0606 H   0  0  0  0  0  0  0  0  0  0  0  0
   50.9893   -2.3367   40.3069 H   0  0  0  0  0  0  0  0  0  0  0  0
   51.7032   -0.8656   38.9618 H   0  0  0  0  0  0  0  0  0  0  0  0
   50.6556   -1.0614   38.0120 H   0  0  0  0  0  0  0  0  0  0  0  0
   53.1972   -2.1469   38.0006 H   0  0  0  0  0  0  0  0  0  0  0  0
   52.3242   -1.5497   36.7141 H   0  0  0  0  0  0  0  0  0  0  0  0
   50.5035   -2.9179   35.7606 H   0  0  0  0  0  0  0  0  0  0  0  0
   49.9906   -5.0892   34.9533 H   0  0  0  0  0  0  0  0  0  0  0  0
   52.8498   -6.6901   37.4433 H   0  0  0  0  0  0  0  0  0  0  0  0
   53.3559   -4.5200   38.2525 H   0  0  0  0  0  0  0  0  0  0  0  0
   42.8508   -6.9823   46.2130 H   0  0  0  0  0  0  0  0  0  0  0  0
   42.0154   -5.8627   47.1147 H   0  0  0  0  0  0  0  0  0  0  0  0
  1  2  1  0  0  0  0
  1 51  1  0  0  0  0
  1 52  1  0  0  0  0
  1 53  1  0  0  0  0
  2  3  2  0  0  0  0
  2  4  2  0  0  0  0
  2  5  1  0  0  0  0
  5  6  1  0  0  0  0
  5 48  1  0  0  0  0
  6  7  1  0  0  0  0
  6 54  1  0  0  0  0
  6 55  1  0  0  0  0
  7  8  1  0  0  0  0
  7 56  1  0  0  0  0
  7 57  1  0  0  0  0
  8  9  2  0  0  0  0
  8 12  1  0  0  0  0
  9 10  1  0  0  0  0
  9 48  1  0  0  0  0
 10 11  2  0  0  0  0
 10 23  1  0  0  0  0
 11 12  1  0  0  0  0
 12 13  1  0  0  0  0
 13 14  1  0  0  0  0
 13 58  1  0  0  0  0
 13 59  1  0  0  0  0
 14 15  1  0  0  0  0
 14 60  1  0  0  0  0
 14 61  1  0  0  0  0
 15 16  1  0  0  0  0
 15 62  1  0  0  0  0
 15 63  1  0  0  0  0
 16 17  1  0  0  0  0
 16 20  1  0  0  0  0
 16 64  1  1  0  0  0
 17 18  1  0  0  0  0
 17 65  1  0  0  0  0
 17 66  1  0  0  0  0
 18 19  1  0  0  0  0
 18 22  1  0  0  0  0
 18 49  1  6  0  0  0
 19 20  1  0  0  0  0
 19 67  1  0  0  0  0
 19 68  1  0  0  0  0
 20 21  1  0  0  0  0
 20 50  1  1  0  0  0
 21 22  1  0  0  0  0
 21 69  1  0  0  0  0
 21 70  1  0  0  0  0
 23 24  2  0  0  0  0
 23 28  1  0  0  0  0
 24 25  1  0  0  0  0
 24 71  1  0  0  0  0
 25 26  2  0  0  0  0
 25 72  1  0  0  0  0
 26 27  1  0  0  0  0
 26 47  1  0  0  0  0
 27 28  2  0  0  0  0
 27 29  1  0  0  0  0
 28 73  1  0  0  0  0
 29 30  3  0  0  0  0
 30 31  1  0  0  0  0
 31 32  2  0  0  0  0
 31 36  1  0  0  0  0
 32 33  1  0  0  0  0
 32 74  1  0  0  0  0
 33 34  2  0  0  0  0
 33 75  1  0  0  0  0
 34 35  1  0  0  0  0
 34 76  1  0  0  0  0
 35 36  2  0  0  0  0
 35 37  1  0  0  0  0
 36 77  1  0  0  0  0
 37 38  1  0  0  0  0
 37 78  1  0  0  0  0
 37 79  1  0  0  0  0
 38 39  1  0  0  0  0
 38 80  1  0  0  0  0
 38 81  1  0  0  0  0
 39 40  1  0  0  0  0
 39 82  1  0  0  0  0
 39 83  1  0  0  0  0
 40 41  2  0  0  0  0
 40 45  1  0  0  0  0
 41 42  1  0  0  0  0
 41 84  1  0  0  0  0
 42 43  2  0  0  0  0
 42 85  1  0  0  0  0
 43 44  1  0  0  0  0
 43 46  1  0  0  0  0
 44 45  2  0  0  0  0
 44 86  1  0  0  0  0
 45 87  1  0  0  0  0
 48 88  1  0  0  0  0
 48 89  1  0  0  0  0
M  CHG  2  16   1  38   1
M  END
