CatS_217:1_D
 OpenBabel12041818463D

 80 84  0  0  1  0  0  0  0  0999 V2000
   43.4029   -9.2115   47.8328 C   0  0  0  0  0  0  0  0  0  0  0  0
   41.9122   -8.2109   48.0987 S   0  0  0  0  0  0  0  0  0  0  0  0
   40.8518   -9.0656   48.5212 O   0  0  0  0  0  0  0  0  0  0  0  0
   42.2306   -7.1822   49.0353 O   0  0  0  0  0  0  0  0  0  0  0  0
   41.4747   -7.4799   46.7006 N   0  0  0  0  0  0  0  0  0  0  0  0
   41.0340   -8.3951   45.6308 C   0  0  0  0  0  0  0  0  0  0  0  0
   40.0871   -7.6645   44.6524 C   0  0  0  0  0  0  0  0  0  0  0  0
   40.6416   -6.3183   44.2207 C   0  0  0  0  0  0  0  0  0  0  0  0
   41.6609   -5.7633   44.8853 C   0  0  0  0  0  0  0  0  0  0  0  0
   41.8694   -4.5406   44.2099 C   0  0  0  0  0  0  0  0  0  0  0  0
   40.9871   -4.4548   43.2376 N   0  0  0  0  0  0  0  0  0  0  0  0
   40.1810   -5.5452   43.1967 N   0  0  0  0  0  0  0  0  0  0  0  0
   38.9855   -5.6309   42.3306 C   0  0  0  0  0  0  0  0  0  0  0  0
   38.1617   -4.4994   41.6608 C   0  0  2  0  0  0  0  0  0  0  0  0
   36.6797   -4.8894   41.4467 C   0  0  0  0  0  0  0  0  0  0  0  0
   36.4192   -5.7740   40.3144 N   0  0  0  0  0  0  0  0  0  0  0  0
   35.6393   -5.2625   39.1893 C   0  0  0  0  0  0  0  0  0  0  0  0
   36.0982   -5.9537   37.8901 C   0  0  0  0  0  0  0  0  0  0  0  0
   36.0403   -7.4827   38.0635 C   0  0  0  0  0  0  0  0  0  0  0  0
   36.7634   -7.8778   39.2644 N   0  3  0  0  0  0  0  0  0  0  0  0
   36.9014   -7.0233   40.2865 C   0  0  0  0  0  0  0  0  0  0  0  0
   38.7953   -4.0150   40.4678 O   0  0  0  0  0  0  0  0  0  0  0  0
   42.8432   -3.4949   44.4767 C   0  0  0  0  0  0  0  0  0  0  0  0
   44.1682   -3.6500   44.1110 C   0  0  0  0  0  0  0  0  0  0  0  0
   45.0760   -2.6441   44.3377 C   0  0  0  0  0  0  0  0  0  0  0  0
   44.7128   -1.4578   44.9425 C   0  0  0  0  0  0  0  0  0  0  0  0
   43.3860   -1.3111   45.3281 C   0  0  0  0  0  0  0  0  0  0  0  0
   42.4670   -2.3103   45.0876 C   0  0  0  0  0  0  0  0  0  0  0  0
   42.7913    0.1852   46.1339 S   0  0  0  0  0  0  0  0  0  0  0  0
   41.1660   -0.1631   46.8609 C   0  0  0  0  0  0  0  0  0  0  0  0
   40.7967    0.9391   47.8792 C   0  0  0  0  0  0  0  0  0  0  0  0
   40.3668    0.3988   49.2190 N   0  3  1  0  0  0  0  0  0  0  0  0
   40.8698   -0.9772   49.5393 C   0  0  0  0  0  0  0  0  0  0  0  0
   42.1723   -0.7240   50.3208 C   0  0  0  0  0  0  0  0  0  0  0  0
   42.1234    0.7434   50.7990 C   0  0  1  0  0  0  0  0  0  0  0  0
   40.7476    1.2855   50.3654 C   0  0  0  0  0  0  0  0  0  0  0  0
   42.2245    0.7843   52.1872 F   0  0  0  0  0  0  0  0  0  0  0  0
   45.8413   -0.4384   45.1207 C   0  0  0  0  0  0  0  0  0  0  0  0
   45.5563    0.7354   44.4325 F   0  0  0  0  0  0  0  0  0  0  0  0
   46.0387   -0.0784   46.4511 F   0  0  0  0  0  0  0  0  0  0  0  0
   47.0714   -0.9040   44.6672 F   0  0  0  0  0  0  0  0  0  0  0  0
   42.3229   -6.4176   46.0991 C   0  0  0  0  0  0  0  0  0  0  0  0
   38.1442   -3.7322   42.3018 H   0  0  0  0  0  0  0  0  0  0  0  0
   42.8717    1.2835   50.4137 H   0  0  0  0  0  0  0  0  0  0  0  0
   43.6828   -9.1309   46.8762 H   0  0  0  0  0  0  0  0  0  0  0  0
   44.1384   -8.8867   48.4275 H   0  0  0  0  0  0  0  0  0  0  0  0
   43.2088  -10.1686   48.0483 H   0  0  0  0  0  0  0  0  0  0  0  0
   40.5553   -9.1732   46.0374 H   0  0  0  0  0  0  0  0  0  0  0  0
   41.8364   -8.7139   45.1263 H   0  0  0  0  0  0  0  0  0  0  0  0
   39.2040   -7.5241   45.0999 H   0  0  0  0  0  0  0  0  0  0  0  0
   39.9899   -8.2328   43.8353 H   0  0  0  0  0  0  0  0  0  0  0  0
   38.3172   -6.1296   42.8825 H   0  0  0  0  0  0  0  0  0  0  0  0
   39.4416   -5.9676   41.5068 H   0  0  0  0  0  0  0  0  0  0  0  0
   36.1551   -4.0490   41.3112 H   0  0  0  0  0  0  0  0  0  0  0  0
   36.4109   -5.4029   42.2617 H   0  0  0  0  0  0  0  0  0  0  0  0
   35.7740   -4.2748   39.1100 H   0  0  0  0  0  0  0  0  0  0  0  0
   34.6695   -5.4525   39.3421 H   0  0  0  0  0  0  0  0  0  0  0  0
   37.0353   -5.6764   37.6780 H   0  0  0  0  0  0  0  0  0  0  0  0
   35.4922   -5.6845   37.1415 H   0  0  0  0  0  0  0  0  0  0  0  0
   36.4525   -7.9234   37.2661 H   0  0  0  0  0  0  0  0  0  0  0  0
   35.0853   -7.7663   38.1499 H   0  0  0  0  0  0  0  0  0  0  0  0
   37.1497   -8.7993   39.3252 H   0  0  0  0  0  0  0  0  0  0  0  0
   37.4029   -7.3425   41.0906 H   0  0  0  0  0  0  0  0  0  0  0  0
   38.8564   -4.7355   39.7681 H   0  0  0  0  0  0  0  0  0  0  0  0
   44.4674   -4.5005   43.6785 H   0  0  0  0  0  0  0  0  0  0  0  0
   46.0267   -2.7751   44.0566 H   0  0  0  0  0  0  0  0  0  0  0  0
   41.5135   -2.1775   45.3585 H   0  0  0  0  0  0  0  0  0  0  0  0
   41.1911   -1.0496   47.3228 H   0  0  0  0  0  0  0  0  0  0  0  0
   40.4785   -0.1819   46.1349 H   0  0  0  0  0  0  0  0  0  0  0  0
   40.0493    1.4847   47.5001 H   0  0  0  0  0  0  0  0  0  0  0  0
   41.6203    1.4848   48.0336 H   0  0  0  0  0  0  0  0  0  0  0  0
   39.4557    0.3592   49.2190 H   0  0  0  0  0  0  0  0  0  0  0  0
   41.0487   -1.4958   48.7032 H   0  0  0  0  0  0  0  0  0  0  0  0
   40.2084   -1.5177   50.0594 H   0  0  0  0  0  0  0  0  0  0  0  0
   42.9653   -0.8705   49.7294 H   0  0  0  0  0  0  0  0  0  0  0  0
   42.2553   -1.3513   51.0952 H   0  0  0  0  0  0  0  0  0  0  0  0
   40.0827    1.2164   51.1091 H   0  0  0  0  0  0  0  0  0  0  0  0
   40.7727    2.2539   50.1168 H   0  0  0  0  0  0  0  0  0  0  0  0
   43.1929   -6.8209   45.8155 H   0  0  0  0  0  0  0  0  0  0  0  0
   42.4599   -5.7081   46.7904 H   0  0  0  0  0  0  0  0  0  0  0  0
  1  2  1  0  0  0  0
  1 45  1  0  0  0  0
  1 46  1  0  0  0  0
  1 47  1  0  0  0  0
  2  3  2  0  0  0  0
  2  4  2  0  0  0  0
  2  5  1  0  0  0  0
  5  6  1  0  0  0  0
  5 42  1  0  0  0  0
  6  7  1  0  0  0  0
  6 48  1  0  0  0  0
  6 49  1  0  0  0  0
  7  8  1  0  0  0  0
  7 50  1  0  0  0  0
  7 51  1  0  0  0  0
  8  9  2  0  0  0  0
  8 12  1  0  0  0  0
  9 10  1  0  0  0  0
  9 42  1  0  0  0  0
 10 11  2  0  0  0  0
 10 23  1  0  0  0  0
 11 12  1  0  0  0  0
 12 13  1  0  0  0  0
 13 14  1  0  0  0  0
 13 52  1  0  0  0  0
 13 53  1  0  0  0  0
 14 15  1  0  0  0  0
 14 22  1  0  0  0  0
 14 43  1  1  0  0  0
 15 16  1  0  0  0  0
 15 54  1  0  0  0  0
 15 55  1  0  0  0  0
 16 17  1  0  0  0  0
 16 21  1  0  0  0  0
 17 18  1  0  0  0  0
 17 56  1  0  0  0  0
 17 57  1  0  0  0  0
 18 19  1  0  0  0  0
 18 58  1  0  0  0  0
 18 59  1  0  0  0  0
 19 20  1  0  0  0  0
 19 60  1  0  0  0  0
 19 61  1  0  0  0  0
 20 21  2  0  0  0  0
 20 62  1  0  0  0  0
 21 63  1  0  0  0  0
 22 64  1  0  0  0  0
 23 24  2  0  0  0  0
 23 28  1  0  0  0  0
 24 25  1  0  0  0  0
 24 65  1  0  0  0  0
 25 26  2  0  0  0  0
 25 66  1  0  0  0  0
 26 27  1  0  0  0  0
 26 38  1  0  0  0  0
 27 28  2  0  0  0  0
 27 29  1  0  0  0  0
 28 67  1  0  0  0  0
 29 30  1  0  0  0  0
 30 31  1  0  0  0  0
 30 68  1  0  0  0  0
 30 69  1  0  0  0  0
 31 32  1  0  0  0  0
 31 70  1  0  0  0  0
 31 71  1  0  0  0  0
 32 33  1  0  0  0  0
 32 36  1  0  0  0  0
 32 72  1  6  0  0  0
 33 34  1  0  0  0  0
 33 73  1  0  0  0  0
 33 74  1  0  0  0  0
 34 35  1  0  0  0  0
 34 75  1  0  0  0  0
 34 76  1  0  0  0  0
 35 36  1  0  0  0  0
 35 37  1  0  0  0  0
 35 44  1  6  0  0  0
 36 77  1  0  0  0  0
 36 78  1  0  0  0  0
 38 39  1  0  0  0  0
 38 40  1  0  0  0  0
 38 41  1  0  0  0  0
 42 79  1  0  0  0  0
 42 80  1  0  0  0  0
M  CHG  2  20   1  32   1
M  END
