CatS_278:1_D
 OpenBabel12041818463D

 94 99  0  0  1  0  0  0  0  0999 V2000
   40.9558   -8.6245   48.4764 C   0  0  0  0  0  0  0  0  0  0  0  0
   41.4962   -9.3707   46.9081 S   0  0  0  0  0  0  0  0  0  0  0  0
   42.9124   -9.5362   46.9373 O   0  0  0  0  0  0  0  0  0  0  0  0
   40.8517  -10.6357   46.7642 O   0  0  0  0  0  0  0  0  0  0  0  0
   41.0970   -8.4169   45.6302 N   0  0  0  0  0  0  0  0  0  0  0  0
   39.6616   -8.2620   45.2842 C   0  0  0  0  0  0  0  0  0  0  0  0
   39.4557   -7.6086   43.8950 C   0  0  0  0  0  0  0  0  0  0  0  0
   40.2524   -6.3211   43.7941 C   0  0  0  0  0  0  0  0  0  0  0  0
   41.2926   -6.0822   44.5944 C   0  0  0  0  0  0  0  0  0  0  0  0
   41.7094   -4.7830   44.2119 C   0  0  0  0  0  0  0  0  0  0  0  0
   40.9287   -4.3646   43.2357 N   0  0  0  0  0  0  0  0  0  0  0  0
   40.0062   -5.3077   42.9262 N   0  0  0  0  0  0  0  0  0  0  0  0
   39.0269   -5.2304   41.8277 C   0  0  0  0  0  0  0  0  0  0  0  0
   37.6386   -4.5551   41.9139 C   0  0  2  0  0  0  0  0  0  0  0  0
   36.8979   -4.4778   40.5635 C   0  0  0  0  0  0  0  0  0  0  0  0
   35.8739   -5.5734   40.4001 N   0  3  0  0  0  0  0  0  0  0  0  0
   36.4699   -6.9606   40.3716 C   0  0  0  0  0  0  0  0  0  0  0  0
   37.1360   -7.2190   39.0061 C   0  0  0  0  0  0  0  0  0  0  0  0
   36.2028   -6.9937   37.9327 O   0  0  0  0  0  0  0  0  0  0  0  0
   35.7076   -5.6416   37.9122 C   0  0  0  0  0  0  0  0  0  0  0  0
   34.9651   -5.3209   39.2237 C   0  0  0  0  0  0  0  0  0  0  0  0
   37.7595   -3.2440   42.4838 O   0  0  0  0  0  0  0  0  0  0  0  0
   42.7778   -3.9693   44.7708 C   0  0  0  0  0  0  0  0  0  0  0  0
   43.6472   -3.2622   43.9599 C   0  0  0  0  0  0  0  0  0  0  0  0
   44.6485   -2.4959   44.5150 C   0  0  0  0  0  0  0  0  0  0  0  0
   44.8323   -2.4199   45.8815 C   0  0  0  0  0  0  0  0  0  0  0  0
   43.9615   -3.1384   46.6900 C   0  0  0  0  0  0  0  0  0  0  0  0
   42.9423   -3.8877   46.1432 C   0  0  0  0  0  0  0  0  0  0  0  0
   44.1367   -3.1565   48.4805 S   0  0  0  0  0  0  0  0  0  0  0  0
   42.5868   -3.7815   49.1847 C   0  0  0  0  0  0  0  0  0  0  0  0
   42.3545   -3.2891   50.6323 C   0  0  0  0  0  0  0  0  0  0  0  0
   41.8976   -1.8504   50.7176 N   0  3  1  0  0  0  0  0  0  0  0  0
   42.9794   -0.9112   51.1859 C   0  0  0  0  0  0  0  0  0  0  0  0
   42.4209    0.5125   51.4119 C   0  0  0  0  0  0  0  0  0  0  0  0
   41.5783    1.0751   50.2370 C   0  0  2  0  0  0  0  0  0  0  0  0
   40.5914    0.0141   49.6891 C   0  0  0  0  0  0  0  0  0  0  0  0
   41.2467   -1.3623   49.4504 C   0  0  0  0  0  0  0  0  0  0  0  0
   42.3429    1.8444   49.1635 C   0  0  0  0  0  0  0  0  0  0  0  0
   42.9750    3.0315   49.4600 C   0  0  0  0  0  0  0  0  0  0  0  0
   43.6532    3.6982   48.4745 C   0  0  0  0  0  0  0  0  0  0  0  0
   43.6836    3.1570   47.2178 C   0  0  0  0  0  0  0  0  0  0  0  0
   43.0356    1.9686   46.9891 C   0  0  0  0  0  0  0  0  0  0  0  0
   42.3583    1.2885   47.9350 N   0  0  0  0  0  0  0  0  0  0  0  0
   40.7711    2.1200   50.7989 O   0  0  0  0  0  0  0  0  0  0  0  0
   45.9901   -1.5513   46.3792 C   0  0  0  0  0  0  0  0  0  0  0  0
   46.8714   -2.2877   47.1644 F   0  0  0  0  0  0  0  0  0  0  0  0
   46.7463   -0.9898   45.3530 F   0  0  0  0  0  0  0  0  0  0  0  0
   45.5245   -0.4954   47.1554 F   0  0  0  0  0  0  0  0  0  0  0  0
   41.7405   -7.0779   45.6643 C   0  0  0  0  0  0  0  0  0  0  0  0
   37.0828   -5.1391   42.5055 H   0  0  0  0  0  0  0  0  0  0  0  0
   40.5045   -7.7532   48.2839 H   0  0  0  0  0  0  0  0  0  0  0  0
   40.3178   -9.2389   48.9407 H   0  0  0  0  0  0  0  0  0  0  0  0
   41.7481   -8.4713   49.0670 H   0  0  0  0  0  0  0  0  0  0  0  0
   39.2223   -7.6918   45.9783 H   0  0  0  0  0  0  0  0  0  0  0  0
   39.2556   -9.1754   45.2530 H   0  0  0  0  0  0  0  0  0  0  0  0
   38.4846   -7.4095   43.7633 H   0  0  0  0  0  0  0  0  0  0  0  0
   39.7724   -8.2413   43.1884 H   0  0  0  0  0  0  0  0  0  0  0  0
   38.8473   -6.1782   41.5640 H   0  0  0  0  0  0  0  0  0  0  0  0
   39.4954   -4.5911   41.2180 H   0  0  0  0  0  0  0  0  0  0  0  0
   37.5678   -4.5494   39.8246 H   0  0  0  0  0  0  0  0  0  0  0  0
   36.4122   -3.6042   40.5343 H   0  0  0  0  0  0  0  0  0  0  0  0
   35.3422   -5.5333   41.1404 H   0  0  0  0  0  0  0  0  0  0  0  0
   35.7484   -7.6360   40.5243 H   0  0  0  0  0  0  0  0  0  0  0  0
   37.1594   -7.0367   41.0918 H   0  0  0  0  0  0  0  0  0  0  0  0
   37.4587   -8.1648   38.9706 H   0  0  0  0  0  0  0  0  0  0  0  0
   37.9046   -6.5882   38.8994 H   0  0  0  0  0  0  0  0  0  0  0  0
   35.0814   -5.5303   37.1404 H   0  0  0  0  0  0  0  0  0  0  0  0
   36.4809   -5.0147   37.8173 H   0  0  0  0  0  0  0  0  0  0  0  0
   34.6811   -4.3620   39.2215 H   0  0  0  0  0  0  0  0  0  0  0  0
   34.1590   -5.9080   39.2973 H   0  0  0  0  0  0  0  0  0  0  0  0
   38.7024   -2.9001   42.4127 H   0  0  0  0  0  0  0  0  0  0  0  0
   43.5485   -3.3075   42.9658 H   0  0  0  0  0  0  0  0  0  0  0  0
   45.2583   -1.9811   43.9125 H   0  0  0  0  0  0  0  0  0  0  0  0
   42.3131   -4.3789   46.7456 H   0  0  0  0  0  0  0  0  0  0  0  0
   42.6122   -4.7812   49.1833 H   0  0  0  0  0  0  0  0  0  0  0  0
   41.8358   -3.4352   48.6225 H   0  0  0  0  0  0  0  0  0  0  0  0
   43.2108   -3.3819   51.1402 H   0  0  0  0  0  0  0  0  0  0  0  0
   41.6226   -3.8506   51.0183 H   0  0  0  0  0  0  0  0  0  0  0  0
   41.2493   -1.8203   51.3563 H   0  0  0  0  0  0  0  0  0  0  0  0
   43.7034   -0.8752   50.4970 H   0  0  0  0  0  0  0  0  0  0  0  0
   43.3406   -1.2509   52.0543 H   0  0  0  0  0  0  0  0  0  0  0  0
   43.1922    1.1295   51.5682 H   0  0  0  0  0  0  0  0  0  0  0  0
   41.8028    0.4510   52.1956 H   0  0  0  0  0  0  0  0  0  0  0  0
   40.2164    0.3445   48.8229 H   0  0  0  0  0  0  0  0  0  0  0  0
   39.8800   -0.1136   50.3801 H   0  0  0  0  0  0  0  0  0  0  0  0
   40.5494   -2.0181   49.1608 H   0  0  0  0  0  0  0  0  0  0  0  0
   41.9424   -1.2738   48.7375 H   0  0  0  0  0  0  0  0  0  0  0  0
   42.9391    3.4036   50.3875 H   0  0  0  0  0  0  0  0  0  0  0  0
   44.1166    4.5626   48.6691 H   0  0  0  0  0  0  0  0  0  0  0  0
   44.1706    3.6203   46.4774 H   0  0  0  0  0  0  0  0  0  0  0  0
   43.0682    1.5851   46.0662 H   0  0  0  0  0  0  0  0  0  0  0  0
   40.2268    2.5830   50.0909 H   0  0  0  0  0  0  0  0  0  0  0  0
   42.7269   -7.2101   45.5669 H   0  0  0  0  0  0  0  0  0  0  0  0
   41.4640   -6.6723   46.5357 H   0  0  0  0  0  0  0  0  0  0  0  0
  1  2  1  0  0  0  0
  1 51  1  0  0  0  0
  1 52  1  0  0  0  0
  1 53  1  0  0  0  0
  2  3  2  0  0  0  0
  2  4  2  0  0  0  0
  2  5  1  0  0  0  0
  5  6  1  0  0  0  0
  5 49  1  0  0  0  0
  6  7  1  0  0  0  0
  6 54  1  0  0  0  0
  6 55  1  0  0  0  0
  7  8  1  0  0  0  0
  7 56  1  0  0  0  0
  7 57  1  0  0  0  0
  8  9  2  0  0  0  0
  8 12  1  0  0  0  0
  9 10  1  0  0  0  0
  9 49  1  0  0  0  0
 10 11  2  0  0  0  0
 10 23  1  0  0  0  0
 11 12  1  0  0  0  0
 12 13  1  0  0  0  0
 13 14  1  0  0  0  0
 13 58  1  0  0  0  0
 13 59  1  0  0  0  0
 14 15  1  0  0  0  0
 14 22  1  0  0  0  0
 14 50  1  1  0  0  0
 15 16  1  0  0  0  0
 15 60  1  0  0  0  0
 15 61  1  0  0  0  0
 16 17  1  0  0  0  0
 16 21  1  0  0  0  0
 16 62  1  0  0  0  0
 17 18  1  0  0  0  0
 17 63  1  0  0  0  0
 17 64  1  0  0  0  0
 18 19  1  0  0  0  0
 18 65  1  0  0  0  0
 18 66  1  0  0  0  0
 19 20  1  0  0  0  0
 20 21  1  0  0  0  0
 20 67  1  0  0  0  0
 20 68  1  0  0  0  0
 21 69  1  0  0  0  0
 21 70  1  0  0  0  0
 22 71  1  0  0  0  0
 23 24  2  0  0  0  0
 23 28  1  0  0  0  0
 24 25  1  0  0  0  0
 24 72  1  0  0  0  0
 25 26  2  0  0  0  0
 25 73  1  0  0  0  0
 26 27  1  0  0  0  0
 26 45  1  0  0  0  0
 27 28  2  0  0  0  0
 27 29  1  0  0  0  0
 28 74  1  0  0  0  0
 29 30  1  0  0  0  0
 30 31  1  0  0  0  0
 30 75  1  0  0  0  0
 30 76  1  0  0  0  0
 31 32  1  0  0  0  0
 31 77  1  0  0  0  0
 31 78  1  0  0  0  0
 32 33  1  0  0  0  0
 32 37  1  0  0  0  0
 32 79  1  1  0  0  0
 33 34  1  0  0  0  0
 33 80  1  0  0  0  0
 33 81  1  0  0  0  0
 34 35  1  0  0  0  0
 34 82  1  0  0  0  0
 34 83  1  0  0  0  0
 35 36  1  0  0  0  0
 35 38  1  6  0  0  0
 35 44  1  0  0  0  0
 36 37  1  0  0  0  0
 36 84  1  0  0  0  0
 36 85  1  0  0  0  0
 37 86  1  0  0  0  0
 37 87  1  0  0  0  0
 38 39  2  0  0  0  0
 38 43  1  0  0  0  0
 39 40  1  0  0  0  0
 39 88  1  0  0  0  0
 40 41  2  0  0  0  0
 40 89  1  0  0  0  0
 41 42  1  0  0  0  0
 41 90  1  0  0  0  0
 42 43  2  0  0  0  0
 42 91  1  0  0  0  0
 44 92  1  0  0  0  0
 45 46  1  0  0  0  0
 45 47  1  0  0  0  0
 45 48  1  0  0  0  0
 49 93  1  0  0  0  0
 49 94  1  0  0  0  0
M  CHG  2  16   1  32   1
M  END
