CatS_256:1_D
 OpenBabel12041818463D

 96101  0  0  1  0  0  0  0  0999 V2000
   43.6339   -8.7608   48.1276 C   0  0  0  0  0  0  0  0  0  0  0  0
   42.3100   -7.5699   48.4810 S   0  0  0  0  0  0  0  0  0  0  0  0
   42.8667   -6.4859   49.2251 O   0  0  0  0  0  0  0  0  0  0  0  0
   41.2587   -8.2396   49.1749 O   0  0  0  0  0  0  0  0  0  0  0  0
   41.7111   -6.9699   47.0852 N   0  0  0  0  0  0  0  0  0  0  0  0
   41.2128   -8.0064   46.1558 C   0  0  0  0  0  0  0  0  0  0  0  0
   40.2652   -7.4443   45.0735 C   0  0  0  0  0  0  0  0  0  0  0  0
   40.8025   -6.1505   44.4921 C   0  0  0  0  0  0  0  0  0  0  0  0
   41.8079   -5.4820   45.0578 C   0  0  0  0  0  0  0  0  0  0  0  0
   41.9719   -4.3608   44.2081 C   0  0  0  0  0  0  0  0  0  0  0  0
   41.0814   -4.4313   43.2370 N   0  0  0  0  0  0  0  0  0  0  0  0
   40.3261   -5.5463   43.3769 N   0  0  0  0  0  0  0  0  0  0  0  0
   39.2807   -6.0036   42.4514 C   0  0  0  0  0  0  0  0  0  0  0  0
   38.3780   -5.0040   41.7041 C   0  0  2  0  0  0  0  0  0  0  0  0
   37.8983   -5.6908   40.4049 C   0  0  0  0  0  0  0  0  0  0  0  0
   36.4315   -6.0332   40.3639 N   0  3  0  0  0  0  0  0  0  0  0  0
   36.2231   -7.5164   40.1686 C   0  0  0  0  0  0  0  0  0  0  0  0
   36.5537   -7.9495   38.7270 C   0  0  0  0  0  0  0  0  0  0  0  0
   35.7021   -7.1382   37.7335 C   0  0  0  0  0  0  0  0  0  0  0  0
   35.9793   -5.6342   37.9197 C   0  0  0  0  0  0  0  0  0  0  0  0
   35.6524   -5.2093   39.3666 C   0  0  0  0  0  0  0  0  0  0  0  0
   39.1077   -3.8068   41.3977 O   0  0  0  0  0  0  0  0  0  0  0  0
   42.9504   -3.2940   44.3280 C   0  0  0  0  0  0  0  0  0  0  0  0
   43.9422   -3.1559   43.3747 C   0  0  0  0  0  0  0  0  0  0  0  0
   44.8787   -2.1578   43.4833 C   0  0  0  0  0  0  0  0  0  0  0  0
   44.8716   -1.2646   44.5371 C   0  0  0  0  0  0  0  0  0  0  0  0
   43.8690   -1.3995   45.4927 C   0  0  0  0  0  0  0  0  0  0  0  0
   42.9267   -2.3996   45.3830 C   0  0  0  0  0  0  0  0  0  0  0  0
   43.7336   -0.3341   46.9425 S   0  0  0  0  0  0  0  0  0  0  0  0
   42.0352    0.2203   47.2616 C   0  0  0  0  0  0  0  0  0  0  0  0
   41.9476    1.0707   48.5466 C   0  0  0  0  0  0  0  0  0  0  0  0
   41.3734    0.2696   49.6912 N   0  3  2  0  0  0  0  0  0  0  0  0
   42.4053   -0.1194   50.7164 C   0  0  0  0  0  0  0  0  0  0  0  0
   41.7090   -0.6542   51.9843 C   0  0  0  0  0  0  0  0  0  0  0  0
   40.7282   -1.8216   51.7086 C   0  0  1  0  0  0  0  0  0  0  0  0
   39.8385   -1.5549   50.4636 C   0  0  0  0  0  0  0  0  0  0  0  0
   40.5724   -0.9277   49.2546 C   0  0  0  0  0  0  0  0  0  0  0  0
   41.3581   -3.2067   51.8214 C   0  0  0  0  0  0  0  0  0  0  0  0
   40.5828   -4.3448   51.8119 C   0  0  0  0  0  0  0  0  0  0  0  0
   41.1819   -5.5706   51.9297 C   0  0  0  0  0  0  0  0  0  0  0  0
   42.5439   -5.6263   52.0497 C   0  0  0  0  0  0  0  0  0  0  0  0
   43.2602   -4.4553   52.0462 C   0  0  0  0  0  0  0  0  0  0  0  0
   42.7020   -3.2338   51.9338 N   0  0  0  0  0  0  0  0  0  0  0  0
   39.8341   -1.8510   52.8303 O   0  0  0  0  0  0  0  0  0  0  0  0
   45.9911   -0.2221   44.5149 C   0  0  0  0  0  0  0  0  0  0  0  0
   46.7467   -0.2973   43.3504 F   0  0  0  0  0  0  0  0  0  0  0  0
   45.5284    1.0895   44.5890 F   0  0  0  0  0  0  0  0  0  0  0  0
   46.8502   -0.3935   45.5943 F   0  0  0  0  0  0  0  0  0  0  0  0
   42.5123   -5.9818   46.3188 C   0  0  0  0  0  0  0  0  0  0  0  0
   37.5960   -4.7457   42.2712 H   0  0  0  0  0  0  0  0  0  0  0  0
   43.7533   -8.8306   47.1372 H   0  0  0  0  0  0  0  0  0  0  0  0
   44.4869   -8.4527   48.5488 H   0  0  0  0  0  0  0  0  0  0  0  0
   43.3907   -9.6557   48.5022 H   0  0  0  0  0  0  0  0  0  0  0  0
   40.7217   -8.6995   46.6835 H   0  0  0  0  0  0  0  0  0  0  0  0
   42.0067   -8.3909   45.6848 H   0  0  0  0  0  0  0  0  0  0  0  0
   39.3676   -7.2742   45.4800 H   0  0  0  0  0  0  0  0  0  0  0  0
   40.1938   -8.1157   44.3357 H   0  0  0  0  0  0  0  0  0  0  0  0
   38.6730   -6.5961   42.9801 H   0  0  0  0  0  0  0  0  0  0  0  0
   39.8128   -6.4093   41.7082 H   0  0  0  0  0  0  0  0  0  0  0  0
   38.4192   -6.5366   40.2901 H   0  0  0  0  0  0  0  0  0  0  0  0
   38.0479   -5.0291   39.6702 H   0  0  0  0  0  0  0  0  0  0  0  0
   36.0987   -5.8343   41.1891 H   0  0  0  0  0  0  0  0  0  0  0  0
   35.2689   -7.7406   40.3670 H   0  0  0  0  0  0  0  0  0  0  0  0
   36.8376   -8.0033   40.7893 H   0  0  0  0  0  0  0  0  0  0  0  0
   36.3581   -8.9241   38.6179 H   0  0  0  0  0  0  0  0  0  0  0  0
   37.5225   -7.7819   38.5448 H   0  0  0  0  0  0  0  0  0  0  0  0
   34.7328   -7.3228   37.8962 H   0  0  0  0  0  0  0  0  0  0  0  0
   35.9398   -7.4044   36.7994 H   0  0  0  0  0  0  0  0  0  0  0  0
   35.4132   -5.1108   37.2828 H   0  0  0  0  0  0  0  0  0  0  0  0
   36.9461   -5.4550   37.7378 H   0  0  0  0  0  0  0  0  0  0  0  0
   35.8839   -4.2439   39.4865 H   0  0  0  0  0  0  0  0  0  0  0  0
   34.6763   -5.3562   39.5269 H   0  0  0  0  0  0  0  0  0  0  0  0
   39.0757   -3.1529   42.1612 H   0  0  0  0  0  0  0  0  0  0  0  0
   43.9776   -3.7877   42.6003 H   0  0  0  0  0  0  0  0  0  0  0  0
   45.5852   -2.0752   42.7804 H   0  0  0  0  0  0  0  0  0  0  0  0
   42.2130   -2.4801   46.0788 H   0  0  0  0  0  0  0  0  0  0  0  0
   41.4436   -0.5802   47.3582 H   0  0  0  0  0  0  0  0  0  0  0  0
   41.7414    0.7872   46.4920 H   0  0  0  0  0  0  0  0  0  0  0  0
   41.3643    1.8646   48.3752 H   0  0  0  0  0  0  0  0  0  0  0  0
   42.8705    1.3632   48.7969 H   0  0  0  0  0  0  0  0  0  0  0  0
   40.7802    0.8185   50.1131 H   0  0  0  0  0  0  0  0  0  0  0  0
   42.9595    0.6793   50.9510 H   0  0  0  0  0  0  0  0  0  0  0  0
   42.9925   -0.8349   50.3377 H   0  0  0  0  0  0  0  0  0  0  0  0
   41.2006    0.0957   52.4074 H   0  0  0  0  0  0  0  0  0  0  0  0
   42.4257   -1.0109   52.5835 H   0  0  0  0  0  0  0  0  0  0  0  0
   39.1004   -0.9373   50.7352 H   0  0  0  0  0  0  0  0  0  0  0  0
   39.5138   -2.4494   50.1569 H   0  0  0  0  0  0  0  0  0  0  0  0
   41.1852   -1.6063   48.8496 H   0  0  0  0  0  0  0  0  0  0  0  0
   39.8940   -0.6360   48.5803 H   0  0  0  0  0  0  0  0  0  0  0  0
   39.5894   -4.2766   51.7196 H   0  0  0  0  0  0  0  0  0  0  0  0
   40.6352   -6.4078   51.9280 H   0  0  0  0  0  0  0  0  0  0  0  0
   43.0102   -6.5064   52.1386 H   0  0  0  0  0  0  0  0  0  0  0  0
   44.2550   -4.5120   52.1320 H   0  0  0  0  0  0  0  0  0  0  0  0
   39.4556   -0.9383   53.0205 H   0  0  0  0  0  0  0  0  0  0  0  0
   43.3772   -6.4086   46.0545 H   0  0  0  0  0  0  0  0  0  0  0  0
   42.6526   -5.1894   46.9125 H   0  0  0  0  0  0  0  0  0  0  0  0
  1  2  1  0  0  0  0
  1 51  1  0  0  0  0
  1 52  1  0  0  0  0
  1 53  1  0  0  0  0
  2  3  2  0  0  0  0
  2  4  2  0  0  0  0
  2  5  1  0  0  0  0
  5  6  1  0  0  0  0
  5 49  1  0  0  0  0
  6  7  1  0  0  0  0
  6 54  1  0  0  0  0
  6 55  1  0  0  0  0
  7  8  1  0  0  0  0
  7 56  1  0  0  0  0
  7 57  1  0  0  0  0
  8  9  2  0  0  0  0
  8 12  1  0  0  0  0
  9 10  1  0  0  0  0
  9 49  1  0  0  0  0
 10 11  2  0  0  0  0
 10 23  1  0  0  0  0
 11 12  1  0  0  0  0
 12 13  1  0  0  0  0
 13 14  1  0  0  0  0
 13 58  1  0  0  0  0
 13 59  1  0  0  0  0
 14 15  1  0  0  0  0
 14 22  1  0  0  0  0
 14 50  1  1  0  0  0
 15 16  1  0  0  0  0
 15 60  1  0  0  0  0
 15 61  1  0  0  0  0
 16 17  1  0  0  0  0
 16 21  1  0  0  0  0
 16 62  1  0  0  0  0
 17 18  1  0  0  0  0
 17 63  1  0  0  0  0
 17 64  1  0  0  0  0
 18 19  1  0  0  0  0
 18 65  1  0  0  0  0
 18 66  1  0  0  0  0
 19 20  1  0  0  0  0
 19 67  1  0  0  0  0
 19 68  1  0  0  0  0
 20 21  1  0  0  0  0
 20 69  1  0  0  0  0
 20 70  1  0  0  0  0
 21 71  1  0  0  0  0
 21 72  1  0  0  0  0
 22 73  1  0  0  0  0
 23 24  2  0  0  0  0
 23 28  1  0  0  0  0
 24 25  1  0  0  0  0
 24 74  1  0  0  0  0
 25 26  2  0  0  0  0
 25 75  1  0  0  0  0
 26 27  1  0  0  0  0
 26 45  1  0  0  0  0
 27 28  2  0  0  0  0
 27 29  1  0  0  0  0
 28 76  1  0  0  0  0
 29 30  1  0  0  0  0
 30 31  1  0  0  0  0
 30 77  1  0  0  0  0
 30 78  1  0  0  0  0
 31 32  1  0  0  0  0
 31 79  1  0  0  0  0
 31 80  1  0  0  0  0
 32 33  1  0  0  0  0
 32 37  1  0  0  0  0
 32 81  1  1  0  0  0
 33 34  1  0  0  0  0
 33 82  1  0  0  0  0
 33 83  1  0  0  0  0
 34 35  1  0  0  0  0
 34 84  1  0  0  0  0
 34 85  1  0  0  0  0
 35 36  1  0  0  0  0
 35 38  1  6  0  0  0
 35 44  1  0  0  0  0
 36 37  1  0  0  0  0
 36 86  1  0  0  0  0
 36 87  1  0  0  0  0
 37 88  1  0  0  0  0
 37 89  1  0  0  0  0
 38 39  2  0  0  0  0
 38 43  1  0  0  0  0
 39 40  1  0  0  0  0
 39 90  1  0  0  0  0
 40 41  2  0  0  0  0
 40 91  1  0  0  0  0
 41 42  1  0  0  0  0
 41 92  1  0  0  0  0
 42 43  2  0  0  0  0
 42 93  1  0  0  0  0
 44 94  1  0  0  0  0
 45 46  1  0  0  0  0
 45 47  1  0  0  0  0
 45 48  1  0  0  0  0
 49 95  1  0  0  0  0
 49 96  1  0  0  0  0
M  CHG  2  16   1  32   1
M  END
