CatS_435:1_D
 OpenBabel12041818463D

 91 96  0  0  1  0  0  0  0  0999 V2000
   44.3383   -2.2316   42.0663 C   0  0  0  0  0  0  0  0  0  0  0  0
   45.5336   -2.4955   41.1253 C   0  0  1  0  0  0  0  0  0  0  0  0
   45.4576   -1.5153   39.9353 C   0  0  0  0  0  0  0  0  0  0  0  0
   46.5277   -1.7592   38.9996 O   0  0  0  0  0  0  0  0  0  0  0  0
   47.8294   -1.5572   39.5837 C   0  0  0  0  0  0  0  0  0  0  0  0
   48.0468   -2.5001   40.7839 C   0  0  0  0  0  0  0  0  0  0  0  0
   46.9047   -2.3540   41.7606 N   0  3  1  0  0  0  0  0  0  0  0  0
   47.0860   -1.1672   42.6800 C   0  0  0  0  0  0  0  0  0  0  0  0
   48.0667   -1.4444   43.8430 C   0  0  0  0  0  0  0  0  0  0  0  0
   47.4364   -1.2035   45.2320 C   0  0  0  0  0  0  0  0  0  0  0  0
   46.0084   -1.4894   45.4214 N   0  0  0  0  0  0  0  0  0  0  0  0
   45.0064   -0.7316   45.9375 C   0  0  0  0  0  0  0  0  0  0  0  0
   43.8787   -1.4249   46.1288 C   0  0  0  0  0  0  0  0  0  0  0  0
   44.2117   -2.7252   45.6788 C   0  0  0  0  0  0  0  0  0  0  0  0
   45.4583   -2.7116   45.2659 N   0  0  0  0  0  0  0  0  0  0  0  0
   43.4112   -3.9378   45.6741 C   0  0  0  0  0  0  0  0  0  0  0  0
   43.6331   -4.9867   46.5581 C   0  0  0  0  0  0  0  0  0  0  0  0
   42.8720   -6.1345   46.4955 C   0  0  0  0  0  0  0  0  0  0  0  0
   41.8741   -6.2550   45.5590 C   0  0  0  0  0  0  0  0  0  0  0  0
   41.6286   -5.2057   44.6783 C   0  0  0  0  0  0  0  0  0  0  0  0
   42.3982   -4.0526   44.7470 C   0  0  0  0  0  0  0  0  0  0  0  0
   40.5891   -5.3063   43.6879 C   0  0  0  0  0  0  0  0  0  0  0  0
   39.7028   -5.3825   42.8545 C   0  0  0  0  0  0  0  0  0  0  0  0
   38.6537   -5.4642   41.8726 C   0  0  0  0  0  0  0  0  0  0  0  0
   37.6229   -4.5309   41.8678 C   0  0  0  0  0  0  0  0  0  0  0  0
   36.6292   -4.6177   40.9274 C   0  0  0  0  0  0  0  0  0  0  0  0
   36.6531   -5.6234   39.9814 C   0  0  0  0  0  0  0  0  0  0  0  0
   37.6780   -6.5496   39.9766 C   0  0  0  0  0  0  0  0  0  0  0  0
   38.6713   -6.4756   40.9197 C   0  0  0  0  0  0  0  0  0  0  0  0
   37.7308   -7.6569   38.9397 C   0  0  0  0  0  0  0  0  0  0  0  0
   38.9306   -7.5114   38.0400 N   0  3  0  0  0  0  0  0  0  0  0  0
   40.1068   -8.3683   38.4240 C   0  0  0  0  0  0  0  0  0  0  0  0
   40.4625   -9.4011   37.3296 C   0  0  0  0  0  0  0  0  0  0  0  0
   41.8382   -8.9915   36.7706 C   0  0  0  0  0  0  0  0  0  0  0  0
   42.0516   -7.5488   37.2458 C   0  0  0  0  0  0  0  0  0  0  0  0
   41.3740   -7.5212   38.6201 C   0  0  0  0  0  0  0  0  0  0  0  0
   35.3886   -5.7207   38.7915 Cl  0  0  0  0  0  0  0  0  0  0  0  0
   40.9211   -7.7079   45.4780 Cl  0  0  0  0  0  0  0  0  0  0  0  0
   42.6060   -0.8308   46.7214 C   0  0  0  0  0  0  0  0  0  0  0  0
   42.7015    0.6291   46.9505 N   0  0  0  0  0  0  0  0  0  0  0  0
   43.7364    1.4247   46.2580 C   0  0  0  0  0  0  0  0  0  0  0  0
   45.1186    0.7394   46.2988 C   0  0  0  0  0  0  0  0  0  0  0  0
   41.8439    1.2549   47.7795 C   0  0  0  0  0  0  0  0  0  0  0  0
   41.8804    2.4502   48.0401 O   0  0  0  0  0  0  0  0  0  0  0  0
   40.7520    0.5216   48.4680 C   0  0  0  0  0  0  0  0  0  0  0  0
   40.2273   -0.4789   47.9997 O   0  0  0  0  0  0  0  0  0  0  0  0
   40.3976    1.0786   49.6336 N   0  0  0  0  0  0  0  0  0  0  0  0
   45.4484   -3.4535   40.8515 H   0  0  0  0  0  0  0  0  0  0  0  0
   43.5112   -2.1137   41.5168 H   0  0  0  0  0  0  0  0  0  0  0  0
   44.2214   -3.0052   42.6891 H   0  0  0  0  0  0  0  0  0  0  0  0
   44.5081   -1.4049   42.6026 H   0  0  0  0  0  0  0  0  0  0  0  0
   45.5248   -0.5777   40.2765 H   0  0  0  0  0  0  0  0  0  0  0  0
   44.5858   -1.6509   39.4647 H   0  0  0  0  0  0  0  0  0  0  0  0
   47.9083   -0.6088   39.8908 H   0  0  0  0  0  0  0  0  0  0  0  0
   48.5238   -1.7570   38.8925 H   0  0  0  0  0  0  0  0  0  0  0  0
   48.9073   -2.2692   41.2380 H   0  0  0  0  0  0  0  0  0  0  0  0
   48.0841   -3.4452   40.4593 H   0  0  0  0  0  0  0  0  0  0  0  0
   46.9828   -3.0841   42.3022 H   0  0  0  0  0  0  0  0  0  0  0  0
   46.1958   -0.9208   43.0631 H   0  0  0  0  0  0  0  0  0  0  0  0
   47.4750   -0.4247   42.1347 H   0  0  0  0  0  0  0  0  0  0  0  0
   48.8608   -0.8451   43.7421 H   0  0  0  0  0  0  0  0  0  0  0  0
   48.3231   -2.4098   43.7950 H   0  0  0  0  0  0  0  0  0  0  0  0
   47.5776   -0.2394   45.4568 H   0  0  0  0  0  0  0  0  0  0  0  0
   47.8943   -1.8677   45.8229 H   0  0  0  0  0  0  0  0  0  0  0  0
   44.3531   -4.9081   47.2477 H   0  0  0  0  0  0  0  0  0  0  0  0
   43.0472   -6.8832   47.1349 H   0  0  0  0  0  0  0  0  0  0  0  0
   42.2157   -3.2975   44.1172 H   0  0  0  0  0  0  0  0  0  0  0  0
   37.6064   -3.7985   42.5485 H   0  0  0  0  0  0  0  0  0  0  0  0
   35.8844   -3.9504   40.9265 H   0  0  0  0  0  0  0  0  0  0  0  0
   39.4092   -7.1506   40.9215 H   0  0  0  0  0  0  0  0  0  0  0  0
   36.8993   -7.6250   38.3851 H   0  0  0  0  0  0  0  0  0  0  0  0
   37.8023   -8.5322   39.4180 H   0  0  0  0  0  0  0  0  0  0  0  0
   39.1811   -6.6365   38.0172 H   0  0  0  0  0  0  0  0  0  0  0  0
   38.7020   -7.6881   37.1763 H   0  0  0  0  0  0  0  0  0  0  0  0
   39.8306   -8.8262   39.2691 H   0  0  0  0  0  0  0  0  0  0  0  0
   39.7745   -9.3885   36.6040 H   0  0  0  0  0  0  0  0  0  0  0  0
   40.4871  -10.3286   37.7026 H   0  0  0  0  0  0  0  0  0  0  0  0
   41.8410   -9.0386   35.7718 H   0  0  0  0  0  0  0  0  0  0  0  0
   42.5663   -9.5996   37.0869 H   0  0  0  0  0  0  0  0  0  0  0  0
   41.6231   -6.8973   36.6198 H   0  0  0  0  0  0  0  0  0  0  0  0
   43.0168   -7.2897   37.2832 H   0  0  0  0  0  0  0  0  0  0  0  0
   41.9662   -7.9204   39.3200 H   0  0  0  0  0  0  0  0  0  0  0  0
   41.1727   -6.5923   38.9312 H   0  0  0  0  0  0  0  0  0  0  0  0
   42.4187   -1.2814   47.5942 H   0  0  0  0  0  0  0  0  0  0  0  0
   41.8701   -0.9813   46.0611 H   0  0  0  0  0  0  0  0  0  0  0  0
   43.8046    2.3203   46.6975 H   0  0  0  0  0  0  0  0  0  0  0  0
   43.4661    1.5137   45.2993 H   0  0  0  0  0  0  0  0  0  0  0  0
   45.7301    1.1916   45.6495 H   0  0  0  0  0  0  0  0  0  0  0  0
   45.4824    0.8128   47.2273 H   0  0  0  0  0  0  0  0  0  0  0  0
   40.8152    1.7948   49.9283 H   0  0  0  0  0  0  0  0  0  0  0  0
   39.7458    0.7256   50.1079 H   0  0  0  0  0  0  0  0  0  0  0  0
  1  2  1  0  0  0  0
  1 49  1  0  0  0  0
  1 50  1  0  0  0  0
  1 51  1  0  0  0  0
  2  3  1  0  0  0  0
  2  7  1  0  0  0  0
  2 48  1  6  0  0  0
  3  4  1  0  0  0  0
  3 52  1  0  0  0  0
  3 53  1  0  0  0  0
  4  5  1  0  0  0  0
  5  6  1  0  0  0  0
  5 54  1  0  0  0  0
  5 55  1  0  0  0  0
  6  7  1  0  0  0  0
  6 56  1  0  0  0  0
  6 57  1  0  0  0  0
  7  8  1  0  0  0  0
  7 58  1  1  0  0  0
  8  9  1  0  0  0  0
  8 59  1  0  0  0  0
  8 60  1  0  0  0  0
  9 10  1  0  0  0  0
  9 61  1  0  0  0  0
  9 62  1  0  0  0  0
 10 11  1  0  0  0  0
 10 63  1  0  0  0  0
 10 64  1  0  0  0  0
 11 12  1  0  0  0  0
 11 15  1  0  0  0  0
 12 13  2  0  0  0  0
 12 42  1  0  0  0  0
 13 14  1  0  0  0  0
 13 39  1  0  0  0  0
 14 15  2  0  0  0  0
 14 16  1  0  0  0  0
 16 17  2  0  0  0  0
 16 21  1  0  0  0  0
 17 18  1  0  0  0  0
 17 65  1  0  0  0  0
 18 19  2  0  0  0  0
 18 66  1  0  0  0  0
 19 20  1  0  0  0  0
 19 38  1  0  0  0  0
 20 21  2  0  0  0  0
 20 22  1  0  0  0  0
 21 67  1  0  0  0  0
 22 23  3  0  0  0  0
 23 24  1  0  0  0  0
 24 25  2  0  0  0  0
 24 29  1  0  0  0  0
 25 26  1  0  0  0  0
 25 68  1  0  0  0  0
 26 27  2  0  0  0  0
 26 69  1  0  0  0  0
 27 28  1  0  0  0  0
 27 37  1  0  0  0  0
 28 29  2  0  0  0  0
 28 30  1  0  0  0  0
 29 70  1  0  0  0  0
 30 31  1  0  0  0  0
 30 71  1  0  0  0  0
 30 72  1  0  0  0  0
 31 32  1  0  0  0  0
 31 73  1  0  0  0  0
 31 74  1  0  0  0  0
 32 33  1  0  0  0  0
 32 36  1  0  0  0  0
 32 75  1  0  0  0  0
 33 34  1  0  0  0  0
 33 76  1  0  0  0  0
 33 77  1  0  0  0  0
 34 35  1  0  0  0  0
 34 78  1  0  0  0  0
 34 79  1  0  0  0  0
 35 36  1  0  0  0  0
 35 80  1  0  0  0  0
 35 81  1  0  0  0  0
 36 82  1  0  0  0  0
 36 83  1  0  0  0  0
 39 40  1  0  0  0  0
 39 84  1  0  0  0  0
 39 85  1  0  0  0  0
 40 41  1  0  0  0  0
 40 43  1  0  0  0  0
 41 42  1  0  0  0  0
 41 86  1  0  0  0  0
 41 87  1  0  0  0  0
 42 88  1  0  0  0  0
 42 89  1  0  0  0  0
 43 44  2  0  0  0  0
 43 45  1  0  0  0  0
 45 46  2  0  0  0  0
 45 47  1  0  0  0  0
 47 90  1  0  0  0  0
 47 91  1  0  0  0  0
M  CHG  2   7   1  31   1
M  END
