CatS_33:1_D
 OpenBabel12041818463D

 87 91  0  0  0  0  0  0  0  0999 V2000
   52.9774   -0.4017   36.1375 C   0  0  0  0  0  0  0  0  0  0  0  0
   52.5326   -1.8490   35.8392 C   0  0  0  0  0  0  0  0  0  0  0  0
   51.2721   -2.2800   36.5548 N   0  3  0  0  0  0  0  0  0  0  0  0
   50.7537   -3.6102   36.0540 C   0  0  0  0  0  0  0  0  0  0  0  0
   51.6903   -4.7977   36.3368 C   0  0  0  0  0  0  0  0  0  0  0  0
   51.4495   -2.2214   38.0611 C   0  0  0  0  0  0  0  0  0  0  0  0
   50.2027   -2.2506   38.9461 C   0  0  0  0  0  0  0  0  0  0  0  0
   48.9015   -2.2676   38.4766 C   0  0  0  0  0  0  0  0  0  0  0  0
   47.8423   -2.2783   39.3474 C   0  0  0  0  0  0  0  0  0  0  0  0
   48.0687   -2.2634   40.7184 C   0  0  0  0  0  0  0  0  0  0  0  0
   49.3743   -2.2465   41.1944 C   0  0  0  0  0  0  0  0  0  0  0  0
   50.4226   -2.2422   40.3100 C   0  0  0  0  0  0  0  0  0  0  0  0
   46.9538   -2.2533   41.6296 C   0  0  0  0  0  0  0  0  0  0  0  0
   46.0119   -2.2638   42.4049 C   0  0  0  0  0  0  0  0  0  0  0  0
   44.9042   -2.3019   43.3243 C   0  0  0  0  0  0  0  0  0  0  0  0
   43.9662   -3.3272   43.2622 C   0  0  0  0  0  0  0  0  0  0  0  0
   42.9260   -3.3808   44.1725 C   0  0  0  0  0  0  0  0  0  0  0  0
   42.8255   -2.3806   45.1271 C   0  0  0  0  0  0  0  0  0  0  0  0
   43.7433   -1.3560   45.1863 C   0  0  0  0  0  0  0  0  0  0  0  0
   44.7854   -1.3108   44.2937 C   0  0  0  0  0  0  0  0  0  0  0  0
   45.9533   -0.0233   44.3715 Cl  0  0  0  0  0  0  0  0  0  0  0  0
   41.9253   -4.4371   44.1720 C   0  0  0  0  0  0  0  0  0  0  0  0
   41.7229   -5.5020   45.0856 C   0  0  0  0  0  0  0  0  0  0  0  0
   40.6721   -6.1535   44.5799 C   0  0  0  0  0  0  0  0  0  0  0  0
   40.1875   -5.5742   43.4539 N   0  0  0  0  0  0  0  0  0  0  0  0
   40.9993   -4.5151   43.2412 N   0  0  0  0  0  0  0  0  0  0  0  0
   38.9737   -5.8714   42.6819 C   0  0  0  0  0  0  0  0  0  0  0  0
   39.0324   -5.4560   41.2020 C   0  0  0  0  0  0  0  0  0  0  0  0
   37.6477   -5.0145   40.6790 C   0  0  0  0  0  0  0  0  0  0  0  0
   36.6651   -6.1501   40.5123 N   0  3  0  0  0  0  0  0  0  0  0  0
   35.4024   -5.7337   39.7999 C   0  0  0  0  0  0  0  0  0  0  0  0
   35.6859   -5.5627   38.2949 C   0  0  0  0  0  0  0  0  0  0  0  0
   36.2376   -6.7751   37.7477 O   0  0  0  0  0  0  0  0  0  0  0  0
   37.4832   -7.1409   38.3723 C   0  0  0  0  0  0  0  0  0  0  0  0
   37.2877   -7.3721   39.8844 C   0  0  0  0  0  0  0  0  0  0  0  0
   40.0970   -7.3963   45.2386 C   0  0  0  0  0  0  0  0  0  0  0  0
   41.0469   -7.9465   46.3266 C   0  0  0  0  0  0  0  0  0  0  0  0
   41.5669   -6.8612   47.1825 N   0  0  0  0  0  0  0  0  0  0  0  0
   42.4125   -5.9587   46.3667 C   0  0  0  0  0  0  0  0  0  0  0  0
   42.0906   -7.2648   48.6669 S   0  0  0  0  0  0  0  0  0  0  0  0
   42.5142   -6.0647   49.3082 O   0  0  0  0  0  0  0  0  0  0  0  0
   41.0396   -7.9863   49.3047 O   0  0  0  0  0  0  0  0  0  0  0  0
   43.5216   -8.3672   48.4987 C   0  0  0  0  0  0  0  0  0  0  0  0
   52.2988    0.2309   35.7643 H   0  0  0  0  0  0  0  0  0  0  0  0
   53.0542   -0.2688   37.1257 H   0  0  0  0  0  0  0  0  0  0  0  0
   53.8676   -0.2294   35.7158 H   0  0  0  0  0  0  0  0  0  0  0  0
   53.2728   -2.4657   36.1070 H   0  0  0  0  0  0  0  0  0  0  0  0
   52.3286   -1.8867   34.8609 H   0  0  0  0  0  0  0  0  0  0  0  0
   50.6491   -1.6576   36.3307 H   0  0  0  0  0  0  0  0  0  0  0  0
   50.6174   -3.5433   35.0655 H   0  0  0  0  0  0  0  0  0  0  0  0
   49.9034   -3.7919   36.5479 H   0  0  0  0  0  0  0  0  0  0  0  0
   52.5016   -4.4652   36.8176 H   0  0  0  0  0  0  0  0  0  0  0  0
   51.2174   -5.4738   36.9018 H   0  0  0  0  0  0  0  0  0  0  0  0
   51.9606   -5.2261   35.4745 H   0  0  0  0  0  0  0  0  0  0  0  0
   51.9415   -1.3758   38.2686 H   0  0  0  0  0  0  0  0  0  0  0  0
   51.9251   -3.0724   38.2838 H   0  0  0  0  0  0  0  0  0  0  0  0
   48.7314   -2.2720   37.4912 H   0  0  0  0  0  0  0  0  0  0  0  0
   46.9064   -2.2969   38.9956 H   0  0  0  0  0  0  0  0  0  0  0  0
   49.5489   -2.2375   42.1790 H   0  0  0  0  0  0  0  0  0  0  0  0
   51.3602   -2.2328   40.6576 H   0  0  0  0  0  0  0  0  0  0  0  0
   44.0444   -4.0300   42.5551 H   0  0  0  0  0  0  0  0  0  0  0  0
   42.0726   -2.4038   45.7848 H   0  0  0  0  0  0  0  0  0  0  0  0
   43.6506   -0.6429   45.8812 H   0  0  0  0  0  0  0  0  0  0  0  0
   38.2061   -5.3951   43.1109 H   0  0  0  0  0  0  0  0  0  0  0  0
   38.8721   -6.8662   42.6897 H   0  0  0  0  0  0  0  0  0  0  0  0
   39.3551   -6.2311   40.6586 H   0  0  0  0  0  0  0  0  0  0  0  0
   39.6579   -4.6801   41.1200 H   0  0  0  0  0  0  0  0  0  0  0  0
   37.7720   -4.5696   39.7920 H   0  0  0  0  0  0  0  0  0  0  0  0
   37.2622   -4.3974   41.3649 H   0  0  0  0  0  0  0  0  0  0  0  0
   36.4158   -6.4017   41.3521 H   0  0  0  0  0  0  0  0  0  0  0  0
   35.0752   -4.8684   40.1793 H   0  0  0  0  0  0  0  0  0  0  0  0
   34.7043   -6.4386   39.9255 H   0  0  0  0  0  0  0  0  0  0  0  0
   36.3349   -4.8134   38.1632 H   0  0  0  0  0  0  0  0  0  0  0  0
   34.8278   -5.3566   37.8244 H   0  0  0  0  0  0  0  0  0  0  0  0
   38.1494   -6.4083   38.2331 H   0  0  0  0  0  0  0  0  0  0  0  0
   37.8129   -7.9896   37.9586 H   0  0  0  0  0  0  0  0  0  0  0  0
   36.6908   -8.1615   40.0276 H   0  0  0  0  0  0  0  0  0  0  0  0
   38.1770   -7.5440   40.3083 H   0  0  0  0  0  0  0  0  0  0  0  0
   39.9539   -8.0993   44.5419 H   0  0  0  0  0  0  0  0  0  0  0  0
   39.2305   -7.1506   45.6730 H   0  0  0  0  0  0  0  0  0  0  0  0
   41.8137   -8.4133   45.8861 H   0  0  0  0  0  0  0  0  0  0  0  0
   40.5329   -8.5824   46.9023 H   0  0  0  0  0  0  0  0  0  0  0  0
   42.6430   -5.1529   46.9121 H   0  0  0  0  0  0  0  0  0  0  0  0
   43.2299   -6.4707   46.1027 H   0  0  0  0  0  0  0  0  0  0  0  0
   43.2918   -9.2603   48.8853 H   0  0  0  0  0  0  0  0  0  0  0  0
   43.7578   -8.4691   47.5324 H   0  0  0  0  0  0  0  0  0  0  0  0
   44.3042   -7.9796   48.9859 H   0  0  0  0  0  0  0  0  0  0  0  0
  1  2  1  0  0  0  0
  1 44  1  0  0  0  0
  1 45  1  0  0  0  0
  1 46  1  0  0  0  0
  2  3  1  0  0  0  0
  2 47  1  0  0  0  0
  2 48  1  0  0  0  0
  3  4  1  0  0  0  0
  3  6  1  0  0  0  0
  3 49  1  0  0  0  0
  4  5  1  0  0  0  0
  4 50  1  0  0  0  0
  4 51  1  0  0  0  0
  5 52  1  0  0  0  0
  5 53  1  0  0  0  0
  5 54  1  0  0  0  0
  6  7  1  0  0  0  0
  6 55  1  0  0  0  0
  6 56  1  0  0  0  0
  7  8  2  0  0  0  0
  7 12  1  0  0  0  0
  8  9  1  0  0  0  0
  8 57  1  0  0  0  0
  9 10  2  0  0  0  0
  9 58  1  0  0  0  0
 10 11  1  0  0  0  0
 10 13  1  0  0  0  0
 11 12  2  0  0  0  0
 11 59  1  0  0  0  0
 12 60  1  0  0  0  0
 13 14  3  0  0  0  0
 14 15  1  0  0  0  0
 15 16  2  0  0  0  0
 15 20  1  0  0  0  0
 16 17  1  0  0  0  0
 16 61  1  0  0  0  0
 17 18  2  0  0  0  0
 17 22  1  0  0  0  0
 18 19  1  0  0  0  0
 18 62  1  0  0  0  0
 19 20  2  0  0  0  0
 19 63  1  0  0  0  0
 20 21  1  0  0  0  0
 22 23  1  0  0  0  0
 22 26  2  0  0  0  0
 23 24  2  0  0  0  0
 23 39  1  0  0  0  0
 24 25  1  0  0  0  0
 24 36  1  0  0  0  0
 25 26  1  0  0  0  0
 25 27  1  0  0  0  0
 27 28  1  0  0  0  0
 27 64  1  0  0  0  0
 27 65  1  0  0  0  0
 28 29  1  0  0  0  0
 28 66  1  0  0  0  0
 28 67  1  0  0  0  0
 29 30  1  0  0  0  0
 29 68  1  0  0  0  0
 29 69  1  0  0  0  0
 30 31  1  0  0  0  0
 30 35  1  0  0  0  0
 30 70  1  0  0  0  0
 31 32  1  0  0  0  0
 31 71  1  0  0  0  0
 31 72  1  0  0  0  0
 32 33  1  0  0  0  0
 32 73  1  0  0  0  0
 32 74  1  0  0  0  0
 33 34  1  0  0  0  0
 34 35  1  0  0  0  0
 34 75  1  0  0  0  0
 34 76  1  0  0  0  0
 35 77  1  0  0  0  0
 35 78  1  0  0  0  0
 36 37  1  0  0  0  0
 36 79  1  0  0  0  0
 36 80  1  0  0  0  0
 37 38  1  0  0  0  0
 37 81  1  0  0  0  0
 37 82  1  0  0  0  0
 38 39  1  0  0  0  0
 38 40  1  0  0  0  0
 39 83  1  0  0  0  0
 39 84  1  0  0  0  0
 40 41  2  0  0  0  0
 40 42  2  0  0  0  0
 40 43  1  0  0  0  0
 43 85  1  0  0  0  0
 43 86  1  0  0  0  0
 43 87  1  0  0  0  0
M  CHG  2   3   1  30   1
M  END
