CatS_372:1_D
 OpenBabel12041818463D

 89 94  0  0  0  0  0  0  0  0999 V2000
   53.3502   -4.8993   34.4802 C   0  0  0  0  0  0  0  0  0  0  0  0
   52.1459   -5.4487   35.2278 C   0  0  0  0  0  0  0  0  0  0  0  0
   51.8050   -6.7576   34.9676 C   0  0  0  0  0  0  0  0  0  0  0  0
   50.7238   -7.3346   35.5891 C   0  0  0  0  0  0  0  0  0  0  0  0
   49.9791   -6.5968   36.4768 C   0  0  0  0  0  0  0  0  0  0  0  0
   50.3191   -5.2897   36.7386 C   0  0  0  0  0  0  0  0  0  0  0  0
   51.4059   -4.6977   36.1256 C   0  0  0  0  0  0  0  0  0  0  0  0
   51.7694   -3.2351   36.3978 C   0  0  0  0  0  0  0  0  0  0  0  0
   50.6933   -2.3484   36.9831 N   0  3  0  0  0  0  0  0  0  0  0  0
   50.9123   -1.8910   38.4061 C   0  0  0  0  0  0  0  0  0  0  0  0
   49.6995   -1.9578   39.3258 C   0  0  0  0  0  0  0  0  0  0  0  0
   49.8320   -1.6634   40.6694 C   0  0  0  0  0  0  0  0  0  0  0  0
   48.7559   -1.7601   41.5162 C   0  0  0  0  0  0  0  0  0  0  0  0
   47.5164   -2.1468   41.0174 C   0  0  0  0  0  0  0  0  0  0  0  0
   47.3821   -2.4318   39.6638 C   0  0  0  0  0  0  0  0  0  0  0  0
   48.4692   -2.3463   38.8343 C   0  0  0  0  0  0  0  0  0  0  0  0
   46.3621   -2.2698   41.8695 C   0  0  0  0  0  0  0  0  0  0  0  0
   45.3942   -2.4162   42.5977 C   0  0  0  0  0  0  0  0  0  0  0  0
   44.2607   -2.6425   43.4567 C   0  0  0  0  0  0  0  0  0  0  0  0
   43.5559   -3.8407   43.4321 C   0  0  0  0  0  0  0  0  0  0  0  0
   42.4622   -4.0273   44.2540 C   0  0  0  0  0  0  0  0  0  0  0  0
   42.0889   -3.0005   45.1132 C   0  0  0  0  0  0  0  0  0  0  0  0
   42.7845   -1.8121   45.1440 C   0  0  0  0  0  0  0  0  0  0  0  0
   43.8646   -1.6247   44.3189 C   0  0  0  0  0  0  0  0  0  0  0  0
   44.7388   -0.1215   44.3573 Cl  0  0  0  0  0  0  0  0  0  0  0  0
   41.7268   -5.2815   44.1927 C   0  0  0  0  0  0  0  0  0  0  0  0
   40.6166   -5.6351   43.3889 C   0  0  0  0  0  0  0  0  0  0  0  0
   40.3510   -6.8926   43.7518 C   0  0  0  0  0  0  0  0  0  0  0  0
   41.2011   -7.3517   44.7060 N   0  0  0  0  0  0  0  0  0  0  0  0
   42.0330   -6.3149   44.9476 N   0  0  0  0  0  0  0  0  0  0  0  0
   41.2408   -8.6399   45.4156 C   0  0  0  0  0  0  0  0  0  0  0  0
   39.8964   -9.0848   46.0189 C   0  0  0  0  0  0  0  0  0  0  0  0
   39.9528  -10.5686   46.4375 C   0  0  0  0  0  0  0  0  0  0  0  0
   39.8451  -11.5136   45.2645 N   0  3  0  0  0  0  0  0  0  0  0  0
   40.4699  -12.8558   45.5612 C   0  0  0  0  0  0  0  0  0  0  0  0
   40.5814  -13.7401   44.3042 C   0  0  0  0  0  0  0  0  0  0  0  0
   38.9357  -14.0879   43.6355 S   0  0  0  0  0  0  0  0  0  0  0  0
   38.3582  -12.3880   43.4048 C   0  0  0  0  0  0  0  0  0  0  0  0
   38.4323  -11.6223   44.7393 C   0  0  0  0  0  0  0  0  0  0  0  0
   39.1990   -7.6847   43.1592 C   0  0  0  0  0  0  0  0  0  0  0  0
   38.6944   -7.1208   41.8092 C   0  0  0  0  0  0  0  0  0  0  0  0
   38.7927   -5.6524   41.6268 N   0  0  0  0  0  0  0  0  0  0  0  0
   39.8272   -4.8679   42.3381 C   0  0  0  0  0  0  0  0  0  0  0  0
   37.9847   -4.9870   40.7635 C   0  0  0  0  0  0  0  0  0  0  0  0
   37.9295   -3.7524   40.7610 O   0  0  0  0  0  0  0  0  0  0  0  0
   37.2523   -5.6931   39.8780 N   0  0  0  0  0  0  0  0  0  0  0  0
   53.7204   -5.6155   33.8884 H   0  0  0  0  0  0  0  0  0  0  0  0
   53.0745   -4.1138   33.9263 H   0  0  0  0  0  0  0  0  0  0  0  0
   54.0481   -4.6076   35.1342 H   0  0  0  0  0  0  0  0  0  0  0  0
   52.3489   -7.2925   34.3210 H   0  0  0  0  0  0  0  0  0  0  0  0
   50.4807   -8.2853   35.3964 H   0  0  0  0  0  0  0  0  0  0  0  0
   49.1903   -7.0095   36.9324 H   0  0  0  0  0  0  0  0  0  0  0  0
   49.7698   -4.7590   37.3840 H   0  0  0  0  0  0  0  0  0  0  0  0
   52.0566   -2.8295   35.5300 H   0  0  0  0  0  0  0  0  0  0  0  0
   52.4778   -3.2747   37.1025 H   0  0  0  0  0  0  0  0  0  0  0  0
   50.6209   -1.5958   36.4793 H   0  0  0  0  0  0  0  0  0  0  0  0
   49.8769   -2.7444   36.9046 H   0  0  0  0  0  0  0  0  0  0  0  0
   51.2259   -0.9419   38.3785 H   0  0  0  0  0  0  0  0  0  0  0  0
   51.5771   -2.5295   38.7939 H   0  0  0  0  0  0  0  0  0  0  0  0
   50.7204   -1.3772   41.0283 H   0  0  0  0  0  0  0  0  0  0  0  0
   48.8627   -1.5533   42.4887 H   0  0  0  0  0  0  0  0  0  0  0  0
   46.4919   -2.6994   39.2952 H   0  0  0  0  0  0  0  0  0  0  0  0
   48.3707   -2.5672   37.8640 H   0  0  0  0  0  0  0  0  0  0  0  0
   43.8433   -4.5729   42.8146 H   0  0  0  0  0  0  0  0  0  0  0  0
   41.3029   -3.1265   45.7184 H   0  0  0  0  0  0  0  0  0  0  0  0
   42.5017   -1.0845   45.7690 H   0  0  0  0  0  0  0  0  0  0  0  0
   41.9089   -8.5684   46.1562 H   0  0  0  0  0  0  0  0  0  0  0  0
   41.4845   -9.3296   44.7337 H   0  0  0  0  0  0  0  0  0  0  0  0
   39.1726   -8.9595   45.3404 H   0  0  0  0  0  0  0  0  0  0  0  0
   39.7077   -8.5298   46.8290 H   0  0  0  0  0  0  0  0  0  0  0  0
   39.1997  -10.7525   47.0690 H   0  0  0  0  0  0  0  0  0  0  0  0
   40.8418  -10.7257   46.8676 H   0  0  0  0  0  0  0  0  0  0  0  0
   40.3476  -11.1490   44.5979 H   0  0  0  0  0  0  0  0  0  0  0  0
   39.9105  -13.3291   46.2417 H   0  0  0  0  0  0  0  0  0  0  0  0
   41.3958  -12.6934   45.9023 H   0  0  0  0  0  0  0  0  0  0  0  0
   41.0323  -14.6003   44.5427 H   0  0  0  0  0  0  0  0  0  0  0  0
   41.1176  -13.2567   43.6123 H   0  0  0  0  0  0  0  0  0  0  0  0
   37.4133  -12.3990   43.0781 H   0  0  0  0  0  0  0  0  0  0  0  0
   38.9408  -11.9314   42.7324 H   0  0  0  0  0  0  0  0  0  0  0  0
   38.0667  -10.7013   44.6045 H   0  0  0  0  0  0  0  0  0  0  0  0
   37.8961  -12.1324   45.4117 H   0  0  0  0  0  0  0  0  0  0  0  0
   38.4406   -7.6794   43.8110 H   0  0  0  0  0  0  0  0  0  0  0  0
   39.5369   -8.6093   42.9832 H   0  0  0  0  0  0  0  0  0  0  0  0
   37.7330   -7.3777   41.7116 H   0  0  0  0  0  0  0  0  0  0  0  0
   39.2996   -7.5130   41.1164 H   0  0  0  0  0  0  0  0  0  0  0  0
   40.4728   -4.5169   41.6599 H   0  0  0  0  0  0  0  0  0  0  0  0
   39.3370   -4.1490   42.8308 H   0  0  0  0  0  0  0  0  0  0  0  0
   37.3246   -6.5656   39.8223 H   0  0  0  0  0  0  0  0  0  0  0  0
   36.7067   -5.2690   39.3330 H   0  0  0  0  0  0  0  0  0  0  0  0
  1  2  1  0  0  0  0
  1 47  1  0  0  0  0
  1 48  1  0  0  0  0
  1 49  1  0  0  0  0
  2  3  2  0  0  0  0
  2  7  1  0  0  0  0
  3  4  1  0  0  0  0
  3 50  1  0  0  0  0
  4  5  2  0  0  0  0
  4 51  1  0  0  0  0
  5  6  1  0  0  0  0
  5 52  1  0  0  0  0
  6  7  2  0  0  0  0
  6 53  1  0  0  0  0
  7  8  1  0  0  0  0
  8  9  1  0  0  0  0
  8 54  1  0  0  0  0
  8 55  1  0  0  0  0
  9 10  1  0  0  0  0
  9 56  1  0  0  0  0
  9 57  1  0  0  0  0
 10 11  1  0  0  0  0
 10 58  1  0  0  0  0
 10 59  1  0  0  0  0
 11 12  2  0  0  0  0
 11 16  1  0  0  0  0
 12 13  1  0  0  0  0
 12 60  1  0  0  0  0
 13 14  2  0  0  0  0
 13 61  1  0  0  0  0
 14 15  1  0  0  0  0
 14 17  1  0  0  0  0
 15 16  2  0  0  0  0
 15 62  1  0  0  0  0
 16 63  1  0  0  0  0
 17 18  3  0  0  0  0
 18 19  1  0  0  0  0
 19 20  2  0  0  0  0
 19 24  1  0  0  0  0
 20 21  1  0  0  0  0
 20 64  1  0  0  0  0
 21 22  2  0  0  0  0
 21 26  1  0  0  0  0
 22 23  1  0  0  0  0
 22 65  1  0  0  0  0
 23 24  2  0  0  0  0
 23 66  1  0  0  0  0
 24 25  1  0  0  0  0
 26 27  1  0  0  0  0
 26 30  2  0  0  0  0
 27 28  2  0  0  0  0
 27 43  1  0  0  0  0
 28 29  1  0  0  0  0
 28 40  1  0  0  0  0
 29 30  1  0  0  0  0
 29 31  1  0  0  0  0
 31 32  1  0  0  0  0
 31 67  1  0  0  0  0
 31 68  1  0  0  0  0
 32 33  1  0  0  0  0
 32 69  1  0  0  0  0
 32 70  1  0  0  0  0
 33 34  1  0  0  0  0
 33 71  1  0  0  0  0
 33 72  1  0  0  0  0
 34 35  1  0  0  0  0
 34 39  1  0  0  0  0
 34 73  1  0  0  0  0
 35 36  1  0  0  0  0
 35 74  1  0  0  0  0
 35 75  1  0  0  0  0
 36 37  1  0  0  0  0
 36 76  1  0  0  0  0
 36 77  1  0  0  0  0
 37 38  1  0  0  0  0
 38 39  1  0  0  0  0
 38 78  1  0  0  0  0
 38 79  1  0  0  0  0
 39 80  1  0  0  0  0
 39 81  1  0  0  0  0
 40 41  1  0  0  0  0
 40 82  1  0  0  0  0
 40 83  1  0  0  0  0
 41 42  1  0  0  0  0
 41 84  1  0  0  0  0
 41 85  1  0  0  0  0
 42 43  1  0  0  0  0
 42 44  1  0  0  0  0
 43 86  1  0  0  0  0
 43 87  1  0  0  0  0
 44 45  2  0  0  0  0
 44 46  1  0  0  0  0
 46 88  1  0  0  0  0
 46 89  1  0  0  0  0
M  CHG  2   9   1  34   1
M  END
