CatS_203:1_D
 OpenBabel12041818463D

 89 93  0  0  1  0  0  0  0  0999 V2000
   49.8241   -3.0098   37.6263 C   0  0  0  0  0  0  0  0  0  0  0  0
   48.6861   -3.2960   38.5748 C   0  0  0  0  0  0  0  0  0  0  0  0
   48.0831   -4.3599   38.5768 O   0  0  0  0  0  0  0  0  0  0  0  0
   48.4404   -2.2552   39.3877 N   0  0  0  0  0  0  0  0  0  0  0  0
   47.3589   -2.3155   40.3863 C   0  0  2  0  0  0  0  0  0  0  0  0
   45.9976   -1.8904   39.7845 C   0  0  0  0  0  0  0  0  0  0  0  0
   44.9496   -1.5332   40.8700 C   0  0  0  0  0  0  0  0  0  0  0  0
   45.2738   -2.1877   42.1888 N   0  3  1  0  0  0  0  0  0  0  0  0
   46.5979   -1.7200   42.7487 C   0  0  0  0  0  0  0  0  0  0  0  0
   47.6733   -1.4983   41.6566 C   0  0  0  0  0  0  0  0  0  0  0  0
   44.1570   -2.1068   43.2036 C   0  0  0  0  0  0  0  0  0  0  0  0
   43.9324   -3.4207   43.9905 C   0  0  1  0  0  0  0  0  0  0  0  0
   42.6451   -3.3800   44.8368 C   0  0  0  0  0  0  0  0  0  0  0  0
   41.6937   -4.4137   44.4071 N   0  0  0  0  0  0  0  0  0  0  0  0
   41.4773   -5.6732   44.8662 C   0  0  0  0  0  0  0  0  0  0  0  0
   40.5354   -6.3192   44.1709 C   0  0  0  0  0  0  0  0  0  0  0  0
   40.1303   -5.3731   43.2007 C   0  0  0  0  0  0  0  0  0  0  0  0
   40.8296   -4.2733   43.3791 N   0  0  0  0  0  0  0  0  0  0  0  0
   39.1248   -5.4955   42.1590 C   0  0  0  0  0  0  0  0  0  0  0  0
   37.9931   -4.7043   42.2206 C   0  0  0  0  0  0  0  0  0  0  0  0
   37.0194   -4.7939   41.2555 C   0  0  0  0  0  0  0  0  0  0  0  0
   37.1400   -5.6667   40.1935 C   0  0  0  0  0  0  0  0  0  0  0  0
   38.2831   -6.4514   40.1261 C   0  0  0  0  0  0  0  0  0  0  0  0
   39.2582   -6.3702   41.0947 C   0  0  0  0  0  0  0  0  0  0  0  0
   38.5612   -7.5999   38.7710 S   0  0  0  0  0  0  0  0  0  0  0  0
   40.3224   -7.5155   38.3635 C   0  0  0  0  0  0  0  0  0  0  0  0
   40.7515   -8.8440   37.7146 C   0  0  0  0  0  0  0  0  0  0  0  0
   41.7739   -8.6628   36.6250 N   0  3  0  0  0  0  0  0  0  0  0  0
   42.4730   -9.9391   36.2579 C   0  0  0  0  0  0  0  0  0  0  0  0
   43.8032   -9.4858   35.6246 C   0  0  0  0  0  0  0  0  0  0  0  0
   43.9354   -7.9750   35.9068 C   0  0  0  0  0  0  0  0  0  0  0  0
   42.8284   -7.6352   36.9164 C   0  0  0  0  0  0  0  0  0  0  0  0
   35.9972   -5.6943   39.1800 C   0  0  0  0  0  0  0  0  0  0  0  0
   35.4926   -6.9834   39.0516 F   0  0  0  0  0  0  0  0  0  0  0  0
   34.9247   -4.8754   39.5222 F   0  0  0  0  0  0  0  0  0  0  0  0
   36.4278   -5.2865   37.9220 F   0  0  0  0  0  0  0  0  0  0  0  0
   40.0985   -7.7490   44.4645 C   0  0  0  0  0  0  0  0  0  0  0  0
   40.6722   -8.2486   45.7339 N   0  0  0  0  0  0  0  0  0  0  0  0
   42.0681   -7.8441   46.0367 C   0  0  0  0  0  0  0  0  0  0  0  0
   42.1949   -6.3047   46.0486 C   0  0  0  0  0  0  0  0  0  0  0  0
   39.9193   -9.0473   46.5215 C   0  0  0  0  0  0  0  0  0  0  0  0
   38.7878   -9.4224   46.2466 O   0  0  0  0  0  0  0  0  0  0  0  0
   40.5605   -9.4705   47.8242 C   0  0  0  0  0  0  0  0  0  0  0  0
   43.9329   -4.5627   43.1213 O   0  0  0  0  0  0  0  0  0  0  0  0
   44.7031   -3.5095   44.6215 H   0  0  0  0  0  0  0  0  0  0  0  0
   50.1686   -2.0872   37.8001 H   0  0  0  0  0  0  0  0  0  0  0  0
   50.5572   -3.6751   37.7675 H   0  0  0  0  0  0  0  0  0  0  0  0
   49.5008   -3.0772   36.6824 H   0  0  0  0  0  0  0  0  0  0  0  0
   48.9318   -1.5259   39.3247 H   0  0  0  0  0  0  0  0  0  0  0  0
   47.2926   -3.2744   40.6622 H   0  0  0  0  0  0  0  0  0  0  0  0
   45.6430   -2.6423   39.2288 H   0  0  0  0  0  0  0  0  0  0  0  0
   46.1534   -1.0696   39.2350 H   0  0  0  0  0  0  0  0  0  0  0  0
   44.0475   -1.8393   40.5657 H   0  0  0  0  0  0  0  0  0  0  0  0
   44.9609   -0.5421   41.0022 H   0  0  0  0  0  0  0  0  0  0  0  0
   45.3841   -3.0690   41.9976 H   0  0  0  0  0  0  0  0  0  0  0  0
   46.9327   -2.4064   43.3942 H   0  0  0  0  0  0  0  0  0  0  0  0
   46.4394   -0.8384   43.1934 H   0  0  0  0  0  0  0  0  0  0  0  0
   47.7065   -0.5270   41.4210 H   0  0  0  0  0  0  0  0  0  0  0  0
   48.5550   -1.8025   42.0173 H   0  0  0  0  0  0  0  0  0  0  0  0
   43.3103   -1.8744   42.7249 H   0  0  0  0  0  0  0  0  0  0  0  0
   44.4198   -1.4101   43.8710 H   0  0  0  0  0  0  0  0  0  0  0  0
   42.2187   -2.4806   44.7414 H   0  0  0  0  0  0  0  0  0  0  0  0
   42.8885   -3.5527   45.7913 H   0  0  0  0  0  0  0  0  0  0  0  0
   37.8819   -4.0591   42.9765 H   0  0  0  0  0  0  0  0  0  0  0  0
   36.2070   -4.2150   41.3240 H   0  0  0  0  0  0  0  0  0  0  0  0
   40.0712   -6.9489   41.0286 H   0  0  0  0  0  0  0  0  0  0  0  0
   40.8535   -7.3593   39.1963 H   0  0  0  0  0  0  0  0  0  0  0  0
   40.4859   -6.7619   37.7269 H   0  0  0  0  0  0  0  0  0  0  0  0
   39.9431   -9.2863   37.3262 H   0  0  0  0  0  0  0  0  0  0  0  0
   41.1729   -9.4031   38.4286 H   0  0  0  0  0  0  0  0  0  0  0  0
   41.3301   -8.3853   35.8783 H   0  0  0  0  0  0  0  0  0  0  0  0
   41.9293  -10.4659   35.6045 H   0  0  0  0  0  0  0  0  0  0  0  0
   42.6142  -10.5349   37.0485 H   0  0  0  0  0  0  0  0  0  0  0  0
   43.7932   -9.6556   34.6391 H   0  0  0  0  0  0  0  0  0  0  0  0
   44.5755   -9.9916   36.0088 H   0  0  0  0  0  0  0  0  0  0  0  0
   43.8139   -7.4504   35.0641 H   0  0  0  0  0  0  0  0  0  0  0  0
   44.8403   -7.7471   36.2661 H   0  0  0  0  0  0  0  0  0  0  0  0
   43.1595   -7.7150   37.8566 H   0  0  0  0  0  0  0  0  0  0  0  0
   42.4956   -6.6960   36.8317 H   0  0  0  0  0  0  0  0  0  0  0  0
   40.3977   -8.3408   43.7160 H   0  0  0  0  0  0  0  0  0  0  0  0
   39.1022   -7.7584   44.5500 H   0  0  0  0  0  0  0  0  0  0  0  0
   42.6799   -8.2219   45.3417 H   0  0  0  0  0  0  0  0  0  0  0  0
   42.3177   -8.1949   46.9393 H   0  0  0  0  0  0  0  0  0  0  0  0
   41.7996   -5.9509   46.8962 H   0  0  0  0  0  0  0  0  0  0  0  0
   43.1654   -6.0723   45.9848 H   0  0  0  0  0  0  0  0  0  0  0  0
   39.9202  -10.0491   48.3294 H   0  0  0  0  0  0  0  0  0  0  0  0
   41.4001   -9.9807   47.6374 H   0  0  0  0  0  0  0  0  0  0  0  0
   40.7853   -8.6615   48.3673 H   0  0  0  0  0  0  0  0  0  0  0  0
   44.7010   -4.5286   42.4725 H   0  0  0  0  0  0  0  0  0  0  0  0
  1  2  1  0  0  0  0
  1 46  1  0  0  0  0
  1 47  1  0  0  0  0
  1 48  1  0  0  0  0
  2  3  2  0  0  0  0
  2  4  1  0  0  0  0
  4  5  1  0  0  0  0
  4 49  1  0  0  0  0
  5  6  1  0  0  0  0
  5 10  1  0  0  0  0
  5 50  1  1  0  0  0
  6  7  1  0  0  0  0
  6 51  1  0  0  0  0
  6 52  1  0  0  0  0
  7  8  1  0  0  0  0
  7 53  1  0  0  0  0
  7 54  1  0  0  0  0
  8  9  1  0  0  0  0
  8 11  1  0  0  0  0
  8 55  1  6  0  0  0
  9 10  1  0  0  0  0
  9 56  1  0  0  0  0
  9 57  1  0  0  0  0
 10 58  1  0  0  0  0
 10 59  1  0  0  0  0
 11 12  1  0  0  0  0
 11 60  1  0  0  0  0
 11 61  1  0  0  0  0
 12 13  1  0  0  0  0
 12 44  1  0  0  0  0
 12 45  1  1  0  0  0
 13 14  1  0  0  0  0
 13 62  1  0  0  0  0
 13 63  1  0  0  0  0
 14 15  1  0  0  0  0
 14 18  1  0  0  0  0
 15 16  2  0  0  0  0
 15 40  1  0  0  0  0
 16 17  1  0  0  0  0
 16 37  1  0  0  0  0
 17 18  2  0  0  0  0
 17 19  1  0  0  0  0
 19 20  2  0  0  0  0
 19 24  1  0  0  0  0
 20 21  1  0  0  0  0
 20 64  1  0  0  0  0
 21 22  2  0  0  0  0
 21 65  1  0  0  0  0
 22 23  1  0  0  0  0
 22 33  1  0  0  0  0
 23 24  2  0  0  0  0
 23 25  1  0  0  0  0
 24 66  1  0  0  0  0
 25 26  1  0  0  0  0
 26 27  1  0  0  0  0
 26 67  1  0  0  0  0
 26 68  1  0  0  0  0
 27 28  1  0  0  0  0
 27 69  1  0  0  0  0
 27 70  1  0  0  0  0
 28 29  1  0  0  0  0
 28 32  1  0  0  0  0
 28 71  1  0  0  0  0
 29 30  1  0  0  0  0
 29 72  1  0  0  0  0
 29 73  1  0  0  0  0
 30 31  1  0  0  0  0
 30 74  1  0  0  0  0
 30 75  1  0  0  0  0
 31 32  1  0  0  0  0
 31 76  1  0  0  0  0
 31 77  1  0  0  0  0
 32 78  1  0  0  0  0
 32 79  1  0  0  0  0
 33 34  1  0  0  0  0
 33 35  1  0  0  0  0
 33 36  1  0  0  0  0
 37 38  1  0  0  0  0
 37 80  1  0  0  0  0
 37 81  1  0  0  0  0
 38 39  1  0  0  0  0
 38 41  1  0  0  0  0
 39 40  1  0  0  0  0
 39 82  1  0  0  0  0
 39 83  1  0  0  0  0
 40 84  1  0  0  0  0
 40 85  1  0  0  0  0
 41 42  2  0  0  0  0
 41 43  1  0  0  0  0
 43 86  1  0  0  0  0
 43 87  1  0  0  0  0
 43 88  1  0  0  0  0
 44 89  1  0  0  0  0
M  CHG  2   8   1  28   1
M  END
