CatS_314:1_D
 OpenBabel12041818463D

105110  0  0  1  0  0  0  0  0999 V2000
   55.0627    0.9449   36.4314 C   0  0  0  0  0  0  0  0  0  0  0  0
   53.7589    1.0882   35.6241 C   0  0  0  0  0  0  0  0  0  0  0  0
   53.9274    2.3141   34.7087 C   0  0  0  0  0  0  0  0  0  0  0  0
   52.5826    1.3940   36.5712 C   0  0  0  0  0  0  0  0  0  0  0  0
   53.5155   -0.0682   34.7868 O   0  0  0  0  0  0  0  0  0  0  0  0
   53.8103   -1.3134   35.2600 C   0  0  0  0  0  0  0  0  0  0  0  0
   54.8543   -1.8655   34.9211 O   0  0  0  0  0  0  0  0  0  0  0  0
   52.9030   -1.8883   36.0872 N   0  0  0  0  0  0  0  0  0  0  0  0
   51.5460   -2.2708   35.6400 C   0  0  0  0  0  0  0  0  0  0  0  0
   51.0872   -3.6644   36.1145 C   0  0  0  0  0  0  0  0  0  0  0  0
   51.3456   -3.8519   37.6276 C   0  0  0  0  0  0  0  0  0  0  0  0
   52.8616   -3.6732   37.8638 C   0  0  0  0  0  0  0  0  0  0  0  0
   53.3042   -2.2553   37.4567 C   0  0  0  0  0  0  0  0  0  0  0  0
   50.5573   -2.8618   38.5294 C   0  0  1  0  0  0  0  0  0  0  0  0
   49.0719   -2.7034   38.1298 C   0  0  0  0  0  0  0  0  0  0  0  0
   48.3616   -1.7043   39.0637 C   0  0  0  0  0  0  0  0  0  0  0  0
   48.4685   -2.1234   40.5090 N   0  3  1  0  0  0  0  0  0  0  0  0
   49.9045   -2.3202   40.9258 C   0  0  0  0  0  0  0  0  0  0  0  0
   50.6157   -3.3298   40.0027 C   0  0  0  0  0  0  0  0  0  0  0  0
   47.7341   -1.1948   41.4437 C   0  0  0  0  0  0  0  0  0  0  0  0
   46.3352   -1.7065   41.8459 C   0  0  1  0  0  0  0  0  0  0  0  0
   46.0601   -1.3922   43.3246 C   0  0  0  0  0  0  0  0  0  0  0  0
   44.7907   -1.8321   43.9223 N   0  0  0  0  0  0  0  0  0  0  0  0
   43.9635   -1.1702   44.7655 C   0  0  0  0  0  0  0  0  0  0  0  0
   42.9488   -1.9228   45.1891 C   0  0  0  0  0  0  0  0  0  0  0  0
   43.1805   -3.1815   44.5814 C   0  0  0  0  0  0  0  0  0  0  0  0
   44.2672   -3.0818   43.8378 N   0  0  0  0  0  0  0  0  0  0  0  0
   42.4097   -4.4098   44.7450 C   0  0  0  0  0  0  0  0  0  0  0  0
   42.6107   -5.1771   45.8842 C   0  0  0  0  0  0  0  0  0  0  0  0
   41.9285   -6.3567   46.0769 C   0  0  0  0  0  0  0  0  0  0  0  0
   41.0335   -6.7948   45.1348 C   0  0  0  0  0  0  0  0  0  0  0  0
   40.8058   -6.0447   43.9856 C   0  0  0  0  0  0  0  0  0  0  0  0
   41.4932   -4.8468   43.7982 C   0  0  0  0  0  0  0  0  0  0  0  0
   39.8558   -6.6208   43.0639 C   0  0  0  0  0  0  0  0  0  0  0  0
   39.1717   -7.1538   42.2021 C   0  0  0  0  0  0  0  0  0  0  0  0
   38.5089   -7.8385   41.0812 C   0  0  0  0  0  0  0  0  0  0  0  0
   37.5122   -7.0803   40.2202 C   0  0  0  0  0  0  0  0  0  0  0  0
   36.9652   -7.5409   39.0421 C   0  0  0  0  0  0  0  0  0  0  0  0
   36.0637   -6.7635   38.3494 C   0  0  0  0  0  0  0  0  0  0  0  0
   35.7047   -5.5244   38.8296 C   0  0  0  0  0  0  0  0  0  0  0  0
   36.2478   -5.0610   40.0049 C   0  0  0  0  0  0  0  0  0  0  0  0
   37.1474   -5.8396   40.6949 C   0  0  0  0  0  0  0  0  0  0  0  0
   40.1921   -8.3014   45.3847 Cl  0  0  0  0  0  0  0  0  0  0  0  0
   41.9077   -1.3822   46.1613 C   0  0  0  0  0  0  0  0  0  0  0  0
   41.9854    0.0718   46.4597 N   0  0  0  0  0  0  0  0  0  0  0  0
   43.3969    0.4905   46.5580 C   0  0  0  0  0  0  0  0  0  0  0  0
   44.1530    0.2618   45.2311 C   0  0  0  0  0  0  0  0  0  0  0  0
   40.9935    0.6070   47.6246 S   0  0  0  0  0  0  0  0  0  0  0  0
   39.6672    0.1446   47.3652 O   0  0  0  0  0  0  0  0  0  0  0  0
   41.1595    2.0203   47.7434 O   0  0  0  0  0  0  0  0  0  0  0  0
   41.6225   -0.2161   49.1151 C   0  0  0  0  0  0  0  0  0  0  0  0
   45.3049   -1.0882   41.0610 O   0  0  0  0  0  0  0  0  0  0  0  0
   46.3252   -2.6939   41.6878 H   0  0  0  0  0  0  0  0  0  0  0  0
   55.4869    0.0664   36.2114 H   0  0  0  0  0  0  0  0  0  0  0  0
   55.6884    1.6890   36.1976 H   0  0  0  0  0  0  0  0  0  0  0  0
   54.8592    0.9860   37.4097 H   0  0  0  0  0  0  0  0  0  0  0  0
   53.8296    2.0252   33.7563 H   0  0  0  0  0  0  0  0  0  0  0  0
   53.2300    2.9970   34.9268 H   0  0  0  0  0  0  0  0  0  0  0  0
   54.8320    2.7168   34.8483 H   0  0  0  0  0  0  0  0  0  0  0  0
   51.8603    0.7189   36.4215 H   0  0  0  0  0  0  0  0  0  0  0  0
   52.8932    1.3502   37.5206 H   0  0  0  0  0  0  0  0  0  0  0  0
   52.2310    2.3116   36.3856 H   0  0  0  0  0  0  0  0  0  0  0  0
   51.5293   -2.2572   34.6402 H   0  0  0  0  0  0  0  0  0  0  0  0
   50.9151   -1.6105   36.0475 H   0  0  0  0  0  0  0  0  0  0  0  0
   51.5878   -4.3650   35.6060 H   0  0  0  0  0  0  0  0  0  0  0  0
   50.1045   -3.7477   35.9493 H   0  0  0  0  0  0  0  0  0  0  0  0
   51.0252   -4.7640   37.8834 H   0  0  0  0  0  0  0  0  0  0  0  0
   53.3631   -4.3465   37.3205 H   0  0  0  0  0  0  0  0  0  0  0  0
   53.0564   -3.8062   38.8356 H   0  0  0  0  0  0  0  0  0  0  0  0
   52.8998   -1.5990   38.0936 H   0  0  0  0  0  0  0  0  0  0  0  0
   54.3036   -2.2395   37.4858 H   0  0  0  0  0  0  0  0  0  0  0  0
   50.9986   -1.9726   38.4088 H   0  0  0  0  0  0  0  0  0  0  0  0
   48.6176   -3.5923   38.1890 H   0  0  0  0  0  0  0  0  0  0  0  0
   49.0258   -2.3556   37.1933 H   0  0  0  0  0  0  0  0  0  0  0  0
   47.3960   -1.6501   38.8094 H   0  0  0  0  0  0  0  0  0  0  0  0
   48.8049   -0.8135   38.9639 H   0  0  0  0  0  0  0  0  0  0  0  0
   48.0655   -2.9383   40.5782 H   0  0  0  0  0  0  0  0  0  0  0  0
   49.9298   -2.6592   41.8662 H   0  0  0  0  0  0  0  0  0  0  0  0
   50.3781   -1.4419   40.8593 H   0  0  0  0  0  0  0  0  0  0  0  0
   51.5716   -3.4173   40.2829 H   0  0  0  0  0  0  0  0  0  0  0  0
   50.1519   -4.2126   40.0773 H   0  0  0  0  0  0  0  0  0  0  0  0
   47.6323   -0.3071   40.9947 H   0  0  0  0  0  0  0  0  0  0  0  0
   48.2757   -1.1330   42.2821 H   0  0  0  0  0  0  0  0  0  0  0  0
   46.1067   -0.3986   43.4278 H   0  0  0  0  0  0  0  0  0  0  0  0
   46.7512   -1.9231   43.8150 H   0  0  0  0  0  0  0  0  0  0  0  0
   43.2624   -4.8675   46.5766 H   0  0  0  0  0  0  0  0  0  0  0  0
   42.0854   -6.8950   46.9050 H   0  0  0  0  0  0  0  0  0  0  0  0
   41.3258   -4.2999   42.9781 H   0  0  0  0  0  0  0  0  0  0  0  0
   38.0250   -8.6248   41.4652 H   0  0  0  0  0  0  0  0  0  0  0  0
   39.2599   -8.0322   40.4499 H   0  0  0  0  0  0  0  0  0  0  0  0
   37.2231   -8.4405   38.6898 H   0  0  0  0  0  0  0  0  0  0  0  0
   35.6685   -7.1003   37.4948 H   0  0  0  0  0  0  0  0  0  0  0  0
   35.0500   -4.9621   38.3244 H   0  0  0  0  0  0  0  0  0  0  0  0
   35.9896   -4.1612   40.3566 H   0  0  0  0  0  0  0  0  0  0  0  0
   37.5407   -5.5016   41.5499 H   0  0  0  0  0  0  0  0  0  0  0  0
   42.0055   -1.8793   47.0235 H   0  0  0  0  0  0  0  0  0  0  0  0
   41.0248   -1.5161   45.7113 H   0  0  0  0  0  0  0  0  0  0  0  0
   43.8427   -0.0348   47.2828 H   0  0  0  0  0  0  0  0  0  0  0  0
   43.4186    1.4689   46.7635 H   0  0  0  0  0  0  0  0  0  0  0  0
   43.8013    0.8872   44.5346 H   0  0  0  0  0  0  0  0  0  0  0  0
   45.1274    0.4333   45.3764 H   0  0  0  0  0  0  0  0  0  0  0  0
   41.9706    0.4762   49.7471 H   0  0  0  0  0  0  0  0  0  0  0  0
   40.8857   -0.7315   49.5528 H   0  0  0  0  0  0  0  0  0  0  0  0
   42.3577   -0.8468   48.8666 H   0  0  0  0  0  0  0  0  0  0  0  0
   44.5533   -0.7548   41.6410 H   0  0  0  0  0  0  0  0  0  0  0  0
  1  2  1  0  0  0  0
  1 54  1  0  0  0  0
  1 55  1  0  0  0  0
  1 56  1  0  0  0  0
  2  3  1  0  0  0  0
  2  4  1  0  0  0  0
  2  5  1  0  0  0  0
  3 57  1  0  0  0  0
  3 58  1  0  0  0  0
  3 59  1  0  0  0  0
  4 60  1  0  0  0  0
  4 61  1  0  0  0  0
  4 62  1  0  0  0  0
  5  6  1  0  0  0  0
  6  7  2  0  0  0  0
  6  8  1  0  0  0  0
  8  9  1  0  0  0  0
  8 13  1  0  0  0  0
  9 10  1  0  0  0  0
  9 63  1  0  0  0  0
  9 64  1  0  0  0  0
 10 11  1  0  0  0  0
 10 65  1  0  0  0  0
 10 66  1  0  0  0  0
 11 12  1  0  0  0  0
 11 14  1  0  0  0  0
 11 67  1  0  0  0  0
 12 13  1  0  0  0  0
 12 68  1  0  0  0  0
 12 69  1  0  0  0  0
 13 70  1  0  0  0  0
 13 71  1  0  0  0  0
 14 15  1  0  0  0  0
 14 19  1  0  0  0  0
 14 72  1  6  0  0  0
 15 16  1  0  0  0  0
 15 73  1  0  0  0  0
 15 74  1  0  0  0  0
 16 17  1  0  0  0  0
 16 75  1  0  0  0  0
 16 76  1  0  0  0  0
 17 18  1  0  0  0  0
 17 20  1  0  0  0  0
 17 77  1  1  0  0  0
 18 19  1  0  0  0  0
 18 78  1  0  0  0  0
 18 79  1  0  0  0  0
 19 80  1  0  0  0  0
 19 81  1  0  0  0  0
 20 21  1  0  0  0  0
 20 82  1  0  0  0  0
 20 83  1  0  0  0  0
 21 22  1  0  0  0  0
 21 52  1  0  0  0  0
 21 53  1  6  0  0  0
 22 23  1  0  0  0  0
 22 84  1  0  0  0  0
 22 85  1  0  0  0  0
 23 24  1  0  0  0  0
 23 27  1  0  0  0  0
 24 25  2  0  0  0  0
 24 47  1  0  0  0  0
 25 26  1  0  0  0  0
 25 44  1  0  0  0  0
 26 27  2  0  0  0  0
 26 28  1  0  0  0  0
 28 29  2  0  0  0  0
 28 33  1  0  0  0  0
 29 30  1  0  0  0  0
 29 86  1  0  0  0  0
 30 31  2  0  0  0  0
 30 87  1  0  0  0  0
 31 32  1  0  0  0  0
 31 43  1  0  0  0  0
 32 33  2  0  0  0  0
 32 34  1  0  0  0  0
 33 88  1  0  0  0  0
 34 35  3  0  0  0  0
 35 36  1  0  0  0  0
 36 37  1  0  0  0  0
 36 89  1  0  0  0  0
 36 90  1  0  0  0  0
 37 38  2  0  0  0  0
 37 42  1  0  0  0  0
 38 39  1  0  0  0  0
 38 91  1  0  0  0  0
 39 40  2  0  0  0  0
 39 92  1  0  0  0  0
 40 41  1  0  0  0  0
 40 93  1  0  0  0  0
 41 42  2  0  0  0  0
 41 94  1  0  0  0  0
 42 95  1  0  0  0  0
 44 45  1  0  0  0  0
 44 96  1  0  0  0  0
 44 97  1  0  0  0  0
 45 46  1  0  0  0  0
 45 48  1  0  0  0  0
 46 47  1  0  0  0  0
 46 98  1  0  0  0  0
 46 99  1  0  0  0  0
 47100  1  0  0  0  0
 47101  1  0  0  0  0
 48 49  2  0  0  0  0
 48 50  2  0  0  0  0
 48 51  1  0  0  0  0
 51102  1  0  0  0  0
 51103  1  0  0  0  0
 51104  1  0  0  0  0
 52105  1  0  0  0  0
M  CHG  1  17   1
M  END
