CatS_194:1_D
 OpenBabel12041818463D

 93 97  0  0  1  0  0  0  0  0999 V2000
   45.0460   -8.5782   35.3635 C   0  0  0  0  0  0  0  0  0  0  0  0
   43.8537   -8.7956   36.3063 C   0  0  2  0  0  0  0  0  0  0  0  0
   42.8449   -9.7677   35.6700 C   0  0  0  0  0  0  0  0  0  0  0  0
   41.6650   -9.9971   36.6372 C   0  0  0  0  0  0  0  0  0  0  0  0
   40.9957   -8.6969   37.0204 N   0  3  2  0  0  0  0  0  0  0  0  0
   41.9761   -7.6718   37.5416 C   0  0  0  0  0  0  0  0  0  0  0  0
   43.1538   -7.4522   36.5736 C   0  0  0  0  0  0  0  0  0  0  0  0
   39.8545   -8.8872   37.9892 C   0  0  0  0  0  0  0  0  0  0  0  0
   39.4592   -7.6527   38.8266 C   0  0  0  0  0  0  0  0  0  0  0  0
   38.9229   -8.1963   40.4758 S   0  0  0  0  0  0  0  0  0  0  0  0
   39.1570   -6.9255   41.7308 C   0  0  0  0  0  0  0  0  0  0  0  0
   40.0405   -7.2119   42.7510 C   0  0  0  0  0  0  0  0  0  0  0  0
   40.3274   -6.2771   43.7314 C   0  0  0  0  0  0  0  0  0  0  0  0
   39.6592   -5.0672   43.6872 C   0  0  0  0  0  0  0  0  0  0  0  0
   38.7756   -4.7847   42.6777 C   0  0  0  0  0  0  0  0  0  0  0  0
   38.5240   -5.6890   41.6695 C   0  0  0  0  0  0  0  0  0  0  0  0
   37.5584   -5.1539   40.6138 C   0  0  0  0  0  0  0  0  0  0  0  0
   37.0051   -3.9337   40.9905 F   0  0  0  0  0  0  0  0  0  0  0  0
   38.1509   -4.9309   39.3769 F   0  0  0  0  0  0  0  0  0  0  0  0
   36.4930   -6.0276   40.4394 F   0  0  0  0  0  0  0  0  0  0  0  0
   41.3268   -6.5230   44.7619 C   0  0  0  0  0  0  0  0  0  0  0  0
   42.0627   -5.5548   45.4807 C   0  0  0  0  0  0  0  0  0  0  0  0
   42.8666   -6.2737   46.2654 C   0  0  0  0  0  0  0  0  0  0  0  0
   42.6987   -7.6170   46.1059 N   0  0  0  0  0  0  0  0  0  0  0  0
   41.7333   -7.7145   45.1508 N   0  0  0  0  0  0  0  0  0  0  0  0
   43.4259   -8.7763   46.6650 C   0  0  0  0  0  0  0  0  0  0  0  0
   43.3841  -10.1288   45.9199 C   0  0  2  0  0  0  0  0  0  0  0  0
   42.3667  -11.1128   46.5442 C   0  0  0  0  0  0  0  0  0  0  0  0
   41.2052  -11.5670   45.6679 N   0  3  1  0  0  0  0  0  0  0  0  0
   40.9838  -13.0633   45.5367 C   0  0  0  0  0  0  0  0  0  0  0  0
   39.5820  -13.4231   44.9916 C   0  0  0  0  0  0  0  0  0  0  0  0
   39.0743  -12.3388   44.0235 C   0  0  2  0  0  0  0  0  0  0  0  0
   38.8965  -11.0012   44.7815 C   0  0  0  0  0  0  0  0  0  0  0  0
   39.9251  -10.8112   45.9282 C   0  0  0  0  0  0  0  0  0  0  0  0
   37.7667  -12.7657   43.3861 C   0  0  0  0  0  0  0  0  0  0  0  0
   36.6944  -12.7664   43.9750 O   0  0  0  0  0  0  0  0  0  0  0  0
   37.9170  -13.1563   42.1122 N   0  0  0  0  0  0  0  0  0  0  0  0
   44.6948  -10.7138   45.9426 O   0  0  0  0  0  0  0  0  0  0  0  0
   43.8647   -5.5851   47.1866 C   0  0  0  0  0  0  0  0  0  0  0  0
   43.6783   -4.0496   47.2532 C   0  0  0  0  0  0  0  0  0  0  0  0
   43.3577   -3.4663   45.9338 N   0  0  0  0  0  0  0  0  0  0  0  0
   42.0782   -4.0319   45.4606 C   0  0  0  0  0  0  0  0  0  0  0  0
   43.4609   -1.8575   45.7796 S   0  0  0  0  0  0  0  0  0  0  0  0
   44.7610   -1.5183   46.2582 O   0  0  0  0  0  0  0  0  0  0  0  0
   43.1732   -1.5862   44.4099 O   0  0  0  0  0  0  0  0  0  0  0  0
   42.2760   -0.9302   46.7841 C   0  0  0  0  0  0  0  0  0  0  0  0
   43.0898   -9.9538   44.9803 H   0  0  0  0  0  0  0  0  0  0  0  0
   44.7038   -8.3220   34.4595 H   0  0  0  0  0  0  0  0  0  0  0  0
   45.6310   -7.8502   35.7210 H   0  0  0  0  0  0  0  0  0  0  0  0
   45.5799   -9.4211   35.2961 H   0  0  0  0  0  0  0  0  0  0  0  0
   44.1900   -9.1812   37.1655 H   0  0  0  0  0  0  0  0  0  0  0  0
   43.2959  -10.6395   35.4787 H   0  0  0  0  0  0  0  0  0  0  0  0
   42.5011   -9.3769   34.8161 H   0  0  0  0  0  0  0  0  0  0  0  0
   42.0043  -10.4459   37.4639 H   0  0  0  0  0  0  0  0  0  0  0  0
   40.9888  -10.5697   36.1737 H   0  0  0  0  0  0  0  0  0  0  0  0
   40.6466   -8.3435   36.2568 H   0  0  0  0  0  0  0  0  0  0  0  0
   42.3331   -7.9833   38.4222 H   0  0  0  0  0  0  0  0  0  0  0  0
   41.4911   -6.8024   37.6368 H   0  0  0  0  0  0  0  0  0  0  0  0
   42.8148   -7.0739   35.7122 H   0  0  0  0  0  0  0  0  0  0  0  0
   43.8049   -6.8122   36.9816 H   0  0  0  0  0  0  0  0  0  0  0  0
   40.1079   -9.6194   38.6214 H   0  0  0  0  0  0  0  0  0  0  0  0
   39.0554   -9.0927   37.4242 H   0  0  0  0  0  0  0  0  0  0  0  0
   38.7134   -7.1643   38.3737 H   0  0  0  0  0  0  0  0  0  0  0  0
   40.2453   -7.0411   38.9149 H   0  0  0  0  0  0  0  0  0  0  0  0
   40.4808   -8.1092   42.7829 H   0  0  0  0  0  0  0  0  0  0  0  0
   39.8230   -4.3879   44.4025 H   0  0  0  0  0  0  0  0  0  0  0  0
   38.3036   -3.9031   42.6732 H   0  0  0  0  0  0  0  0  0  0  0  0
   43.0617   -8.9353   47.5826 H   0  0  0  0  0  0  0  0  0  0  0  0
   44.3861   -8.5043   46.6030 H   0  0  0  0  0  0  0  0  0  0  0  0
   41.9804  -10.6731   47.3549 H   0  0  0  0  0  0  0  0  0  0  0  0
   42.8916  -11.9449   46.7236 H   0  0  0  0  0  0  0  0  0  0  0  0
   41.4325  -11.2978   44.8278 H   0  0  0  0  0  0  0  0  0  0  0  0
   41.0952  -13.4833   46.4374 H   0  0  0  0  0  0  0  0  0  0  0  0
   41.6552  -13.4077   44.8804 H   0  0  0  0  0  0  0  0  0  0  0  0
   38.9434  -13.5077   45.7563 H   0  0  0  0  0  0  0  0  0  0  0  0
   39.6449  -14.2888   44.4950 H   0  0  0  0  0  0  0  0  0  0  0  0
   39.7490  -12.2122   43.2962 H   0  0  0  0  0  0  0  0  0  0  0  0
   37.9751  -10.9731   45.1689 H   0  0  0  0  0  0  0  0  0  0  0  0
   39.0454  -10.2632   44.1233 H   0  0  0  0  0  0  0  0  0  0  0  0
   40.1356   -9.8378   46.0191 H   0  0  0  0  0  0  0  0  0  0  0  0
   39.5194  -11.1699   46.7690 H   0  0  0  0  0  0  0  0  0  0  0  0
   38.7067  -13.1377   41.7239 H   0  0  0  0  0  0  0  0  0  0  0  0
   37.2158  -13.4309   41.6572 H   0  0  0  0  0  0  0  0  0  0  0  0
   44.6559  -11.7178   45.9328 H   0  0  0  0  0  0  0  0  0  0  0  0
   44.7889   -5.7812   46.8588 H   0  0  0  0  0  0  0  0  0  0  0  0
   43.7110   -5.9410   48.1084 H   0  0  0  0  0  0  0  0  0  0  0  0
   44.5226   -3.6361   47.5940 H   0  0  0  0  0  0  0  0  0  0  0  0
   42.9099   -3.8609   47.8648 H   0  0  0  0  0  0  0  0  0  0  0  0
   41.3411   -3.6958   46.0469 H   0  0  0  0  0  0  0  0  0  0  0  0
   41.9553   -3.7423   44.5114 H   0  0  0  0  0  0  0  0  0  0  0  0
   41.6651   -0.4200   46.1788 H   0  0  0  0  0  0  0  0  0  0  0  0
   41.7425   -1.5620   47.3464 H   0  0  0  0  0  0  0  0  0  0  0  0
   42.7656   -0.2959   47.3825 H   0  0  0  0  0  0  0  0  0  0  0  0
  1  2  1  0  0  0  0
  1 48  1  0  0  0  0
  1 49  1  0  0  0  0
  1 50  1  0  0  0  0
  2  3  1  0  0  0  0
  2  7  1  0  0  0  0
  2 51  1  1  0  0  0
  3  4  1  0  0  0  0
  3 52  1  0  0  0  0
  3 53  1  0  0  0  0
  4  5  1  0  0  0  0
  4 54  1  0  0  0  0
  4 55  1  0  0  0  0
  5  6  1  0  0  0  0
  5  8  1  0  0  0  0
  5 56  1  6  0  0  0
  6  7  1  0  0  0  0
  6 57  1  0  0  0  0
  6 58  1  0  0  0  0
  7 59  1  0  0  0  0
  7 60  1  0  0  0  0
  8  9  1  0  0  0  0
  8 61  1  0  0  0  0
  8 62  1  0  0  0  0
  9 10  1  0  0  0  0
  9 63  1  0  0  0  0
  9 64  1  0  0  0  0
 10 11  1  0  0  0  0
 11 12  2  0  0  0  0
 11 16  1  0  0  0  0
 12 13  1  0  0  0  0
 12 65  1  0  0  0  0
 13 14  2  0  0  0  0
 13 21  1  0  0  0  0
 14 15  1  0  0  0  0
 14 66  1  0  0  0  0
 15 16  2  0  0  0  0
 15 67  1  0  0  0  0
 16 17  1  0  0  0  0
 17 18  1  0  0  0  0
 17 19  1  0  0  0  0
 17 20  1  0  0  0  0
 21 22  1  0  0  0  0
 21 25  2  0  0  0  0
 22 23  2  0  0  0  0
 22 42  1  0  0  0  0
 23 24  1  0  0  0  0
 23 39  1  0  0  0  0
 24 25  1  0  0  0  0
 24 26  1  0  0  0  0
 26 27  1  0  0  0  0
 26 68  1  0  0  0  0
 26 69  1  0  0  0  0
 27 28  1  0  0  0  0
 27 38  1  0  0  0  0
 27 47  1  6  0  0  0
 28 29  1  0  0  0  0
 28 70  1  0  0  0  0
 28 71  1  0  0  0  0
 29 30  1  0  0  0  0
 29 34  1  0  0  0  0
 29 72  1  6  0  0  0
 30 31  1  0  0  0  0
 30 73  1  0  0  0  0
 30 74  1  0  0  0  0
 31 32  1  0  0  0  0
 31 75  1  0  0  0  0
 31 76  1  0  0  0  0
 32 33  1  0  0  0  0
 32 35  1  0  0  0  0
 32 77  1  6  0  0  0
 33 34  1  0  0  0  0
 33 78  1  0  0  0  0
 33 79  1  0  0  0  0
 34 80  1  0  0  0  0
 34 81  1  0  0  0  0
 35 36  2  0  0  0  0
 35 37  1  0  0  0  0
 37 82  1  0  0  0  0
 37 83  1  0  0  0  0
 38 84  1  0  0  0  0
 39 40  1  0  0  0  0
 39 85  1  0  0  0  0
 39 86  1  0  0  0  0
 40 41  1  0  0  0  0
 40 87  1  0  0  0  0
 40 88  1  0  0  0  0
 41 42  1  0  0  0  0
 41 43  1  0  0  0  0
 42 89  1  0  0  0  0
 42 90  1  0  0  0  0
 43 44  2  0  0  0  0
 43 45  2  0  0  0  0
 43 46  1  0  0  0  0
 46 91  1  0  0  0  0
 46 92  1  0  0  0  0
 46 93  1  0  0  0  0
M  CHG  2   5   1  29   1
M  END
