CatS_71:1_D
 OpenBabel12041818463D

 99105  0  0  0  0  0  0  0  0999 V2000
   38.3550   -4.6265   39.6905 C   0  0  0  0  0  0  0  0  0  0  0  0
   37.5252   -4.5711   41.3039 S   0  0  0  0  0  0  0  0  0  0  0  0
   37.4698   -3.2193   41.7550 O   0  0  0  0  0  0  0  0  0  0  0  0
   36.2874   -5.2703   41.1876 O   0  0  0  0  0  0  0  0  0  0  0  0
   38.4321   -5.3890   42.3767 N   0  0  0  0  0  0  0  0  0  0  0  0
   38.7027   -6.8168   42.1005 C   0  0  0  0  0  0  0  0  0  0  0  0
   39.2663   -7.5348   43.3477 C   0  0  0  0  0  0  0  0  0  0  0  0
   40.4548   -6.7684   43.8972 C   0  0  0  0  0  0  0  0  0  0  0  0
   40.6558   -5.4821   43.6087 C   0  0  0  0  0  0  0  0  0  0  0  0
   41.8661   -5.1724   44.2763 C   0  0  0  0  0  0  0  0  0  0  0  0
   42.2783   -6.2575   44.9026 N   0  0  0  0  0  0  0  0  0  0  0  0
   41.4151   -7.2822   44.7039 N   0  0  0  0  0  0  0  0  0  0  0  0
   41.5686   -8.6424   45.2410 C   0  0  0  0  0  0  0  0  0  0  0  0
   40.6372   -9.0500   46.4005 C   0  0  0  0  0  0  0  0  0  0  0  0
   39.3224   -9.6982   45.9085 C   0  0  0  0  0  0  0  0  0  0  0  0
   39.5408  -11.1097   45.4155 N   0  3  1  0  0  0  0  0  0  0  0  0
   40.0516  -12.0278   46.4996 C   0  0  0  0  0  0  0  0  0  0  0  0
   40.3756  -13.4237   45.9325 C   0  0  0  0  0  0  0  0  0  0  0  0
   39.1136  -14.0388   45.2932 C   0  0  1  0  0  0  0  0  0  0  0  0
   38.6176  -13.0983   44.1721 C   0  0  0  0  0  0  0  0  0  0  0  0
   38.3236  -11.6904   44.7381 C   0  0  0  0  0  0  0  0  0  0  0  0
   39.3405  -15.4716   44.8303 C   0  0  0  0  0  0  0  0  0  0  0  0
   38.2503  -16.3097   44.7872 C   0  0  0  0  0  0  0  0  0  0  0  0
   38.4159  -17.6062   44.3791 C   0  0  0  0  0  0  0  0  0  0  0  0
   39.6704  -18.0266   44.0274 C   0  0  0  0  0  0  0  0  0  0  0  0
   40.7164  -17.1387   44.0955 C   0  0  0  0  0  0  0  0  0  0  0  0
   40.5881  -15.8568   44.4913 N   0  0  0  0  0  0  0  0  0  0  0  0
   42.5956   -3.9107   44.2978 C   0  0  0  0  0  0  0  0  0  0  0  0
   42.1448   -2.8593   45.0870 C   0  0  0  0  0  0  0  0  0  0  0  0
   42.8131   -1.6560   45.1204 C   0  0  0  0  0  0  0  0  0  0  0  0
   43.9417   -1.4729   44.3639 C   0  0  0  0  0  0  0  0  0  0  0  0
   44.4182   -2.5111   43.5655 C   0  0  0  0  0  0  0  0  0  0  0  0
   43.7391   -3.7283   43.5407 C   0  0  0  0  0  0  0  0  0  0  0  0
   45.5989   -2.2500   42.7800 C   0  0  0  0  0  0  0  0  0  0  0  0
   46.5788   -2.1041   42.0655 C   0  0  0  0  0  0  0  0  0  0  0  0
   47.7113   -2.0115   41.1790 C   0  0  0  0  0  0  0  0  0  0  0  0
   49.0214   -2.0089   41.6458 C   0  0  0  0  0  0  0  0  0  0  0  0
   50.0655   -1.9734   40.7541 C   0  0  0  0  0  0  0  0  0  0  0  0
   49.8325   -1.9262   39.3917 C   0  0  0  0  0  0  0  0  0  0  0  0
   48.5305   -1.9144   38.9325 C   0  0  0  0  0  0  0  0  0  0  0  0
   47.4787   -1.9590   39.8095 C   0  0  0  0  0  0  0  0  0  0  0  0
   50.9534   -1.9313   38.3558 C   0  0  0  0  0  0  0  0  0  0  0  0
   50.5649   -2.2703   36.9366 N   0  3  0  0  0  0  0  0  0  0  0  0
   51.5194   -3.1790   36.1990 C   0  0  0  0  0  0  0  0  0  0  0  0
   51.0948   -4.6404   36.1483 C   0  0  0  0  0  0  0  0  0  0  0  0
   50.4025   -5.1572   37.2204 C   0  0  0  0  0  0  0  0  0  0  0  0
   49.9691   -6.4619   37.2062 C   0  0  0  0  0  0  0  0  0  0  0  0
   50.2267   -7.2623   36.1172 C   0  0  0  0  0  0  0  0  0  0  0  0
   50.9216   -6.7543   35.0418 C   0  0  0  0  0  0  0  0  0  0  0  0
   51.3489   -5.4460   35.0574 C   0  0  0  0  0  0  0  0  0  0  0  0
   49.6627   -8.9067   36.1113 Cl  0  0  0  0  0  0  0  0  0  0  0  0
   44.7485    0.0699   44.4008 Cl  0  0  0  0  0  0  0  0  0  0  0  0
   39.7042   -4.7022   42.7075 C   0  0  0  0  0  0  0  0  0  0  0  0
   39.2041   -5.1475   39.7788 H   0  0  0  0  0  0  0  0  0  0  0  0
   37.7587   -5.0658   39.0187 H   0  0  0  0  0  0  0  0  0  0  0  0
   38.5598   -3.6965   39.3851 H   0  0  0  0  0  0  0  0  0  0  0  0
   39.3657   -6.8855   41.3550 H   0  0  0  0  0  0  0  0  0  0  0  0
   37.8415   -7.2572   41.8475 H   0  0  0  0  0  0  0  0  0  0  0  0
   39.5528   -8.4596   43.0975 H   0  0  0  0  0  0  0  0  0  0  0  0
   38.5546   -7.5801   44.0488 H   0  0  0  0  0  0  0  0  0  0  0  0
   42.5113   -8.7362   45.5616 H   0  0  0  0  0  0  0  0  0  0  0  0
   41.3187   -9.2479   44.4855 H   0  0  0  0  0  0  0  0  0  0  0  0
   40.4145   -8.2352   46.9357 H   0  0  0  0  0  0  0  0  0  0  0  0
   41.1205   -9.7303   46.9514 H   0  0  0  0  0  0  0  0  0  0  0  0
   38.9475   -9.1470   45.1632 H   0  0  0  0  0  0  0  0  0  0  0  0
   38.6874   -9.7353   46.6802 H   0  0  0  0  0  0  0  0  0  0  0  0
   40.1869  -11.0638   44.7736 H   0  0  0  0  0  0  0  0  0  0  0  0
   39.3551  -12.1148   47.2118 H   0  0  0  0  0  0  0  0  0  0  0  0
   40.8899  -11.6369   46.8797 H   0  0  0  0  0  0  0  0  0  0  0  0
   40.6982  -14.0161   46.6707 H   0  0  0  0  0  0  0  0  0  0  0  0
   41.0869  -13.3376   45.2350 H   0  0  0  0  0  0  0  0  0  0  0  0
   38.3914  -14.1132   45.9809 H   0  0  0  0  0  0  0  0  0  0  0  0
   37.7833  -13.4749   43.7695 H   0  0  0  0  0  0  0  0  0  0  0  0
   39.3300  -13.0229   43.4743 H   0  0  0  0  0  0  0  0  0  0  0  0
   38.0453  -11.0871   43.9907 H   0  0  0  0  0  0  0  0  0  0  0  0
   37.5918  -11.7690   45.4151 H   0  0  0  0  0  0  0  0  0  0  0  0
   37.3456  -15.9753   45.0515 H   0  0  0  0  0  0  0  0  0  0  0  0
   37.6374  -18.2325   44.3387 H   0  0  0  0  0  0  0  0  0  0  0  0
   39.8233  -18.9675   43.7250 H   0  0  0  0  0  0  0  0  0  0  0  0
   41.6263  -17.4625   43.8363 H   0  0  0  0  0  0  0  0  0  0  0  0
   41.3204   -2.9788   45.6403 H   0  0  0  0  0  0  0  0  0  0  0  0
   42.4743   -0.9135   45.6982 H   0  0  0  0  0  0  0  0  0  0  0  0
   44.0814   -4.4756   42.9711 H   0  0  0  0  0  0  0  0  0  0  0  0
   49.2029   -2.0330   42.6288 H   0  0  0  0  0  0  0  0  0  0  0  0
   51.0058   -1.9819   41.0943 H   0  0  0  0  0  0  0  0  0  0  0  0
   48.3532   -1.8729   37.9492 H   0  0  0  0  0  0  0  0  0  0  0  0
   46.5405   -1.9539   39.4632 H   0  0  0  0  0  0  0  0  0  0  0  0
   51.6383   -2.5970   38.6521 H   0  0  0  0  0  0  0  0  0  0  0  0
   51.2801   -0.9870   38.3184 H   0  0  0  0  0  0  0  0  0  0  0  0
   49.7513   -2.6761   36.9737 H   0  0  0  0  0  0  0  0  0  0  0  0
   50.3999   -1.5137   36.4560 H   0  0  0  0  0  0  0  0  0  0  0  0
   52.4113   -3.1265   36.6480 H   0  0  0  0  0  0  0  0  0  0  0  0
   51.5391   -2.8588   35.2519 H   0  0  0  0  0  0  0  0  0  0  0  0
   50.2136   -4.5797   38.0147 H   0  0  0  0  0  0  0  0  0  0  0  0
   49.4659   -6.8296   37.9883 H   0  0  0  0  0  0  0  0  0  0  0  0
   51.1152   -7.3349   34.2512 H   0  0  0  0  0  0  0  0  0  0  0  0
   51.8470   -5.0769   34.2727 H   0  0  0  0  0  0  0  0  0  0  0  0
   39.4814   -3.8405   43.1631 H   0  0  0  0  0  0  0  0  0  0  0  0
   40.1859   -4.5835   41.8393 H   0  0  0  0  0  0  0  0  0  0  0  0
  1  2  1  0  0  0  0
  1 54  1  0  0  0  0
  1 55  1  0  0  0  0
  1 56  1  0  0  0  0
  2  3  2  0  0  0  0
  2  4  2  0  0  0  0
  2  5  1  0  0  0  0
  5  6  1  0  0  0  0
  5 53  1  0  0  0  0
  6  7  1  0  0  0  0
  6 57  1  0  0  0  0
  6 58  1  0  0  0  0
  7  8  1  0  0  0  0
  7 59  1  0  0  0  0
  7 60  1  0  0  0  0
  8  9  2  0  0  0  0
  8 12  1  0  0  0  0
  9 10  1  0  0  0  0
  9 53  1  0  0  0  0
 10 11  2  0  0  0  0
 10 28  1  0  0  0  0
 11 12  1  0  0  0  0
 12 13  1  0  0  0  0
 13 14  1  0  0  0  0
 13 61  1  0  0  0  0
 13 62  1  0  0  0  0
 14 15  1  0  0  0  0
 14 63  1  0  0  0  0
 14 64  1  0  0  0  0
 15 16  1  0  0  0  0
 15 65  1  0  0  0  0
 15 66  1  0  0  0  0
 16 17  1  0  0  0  0
 16 21  1  0  0  0  0
 16 67  1  6  0  0  0
 17 18  1  0  0  0  0
 17 68  1  0  0  0  0
 17 69  1  0  0  0  0
 18 19  1  0  0  0  0
 18 70  1  0  0  0  0
 18 71  1  0  0  0  0
 19 20  1  0  0  0  0
 19 22  1  0  0  0  0
 19 72  1  1  0  0  0
 20 21  1  0  0  0  0
 20 73  1  0  0  0  0
 20 74  1  0  0  0  0
 21 75  1  0  0  0  0
 21 76  1  0  0  0  0
 22 23  2  0  0  0  0
 22 27  1  0  0  0  0
 23 24  1  0  0  0  0
 23 77  1  0  0  0  0
 24 25  2  0  0  0  0
 24 78  1  0  0  0  0
 25 26  1  0  0  0  0
 25 79  1  0  0  0  0
 26 27  2  0  0  0  0
 26 80  1  0  0  0  0
 28 29  2  0  0  0  0
 28 33  1  0  0  0  0
 29 30  1  0  0  0  0
 29 81  1  0  0  0  0
 30 31  2  0  0  0  0
 30 82  1  0  0  0  0
 31 32  1  0  0  0  0
 31 52  1  0  0  0  0
 32 33  2  0  0  0  0
 32 34  1  0  0  0  0
 33 83  1  0  0  0  0
 34 35  3  0  0  0  0
 35 36  1  0  0  0  0
 36 37  2  0  0  0  0
 36 41  1  0  0  0  0
 37 38  1  0  0  0  0
 37 84  1  0  0  0  0
 38 39  2  0  0  0  0
 38 85  1  0  0  0  0
 39 40  1  0  0  0  0
 39 42  1  0  0  0  0
 40 41  2  0  0  0  0
 40 86  1  0  0  0  0
 41 87  1  0  0  0  0
 42 43  1  0  0  0  0
 42 88  1  0  0  0  0
 42 89  1  0  0  0  0
 43 44  1  0  0  0  0
 43 90  1  0  0  0  0
 43 91  1  0  0  0  0
 44 45  1  0  0  0  0
 44 92  1  0  0  0  0
 44 93  1  0  0  0  0
 45 46  2  0  0  0  0
 45 50  1  0  0  0  0
 46 47  1  0  0  0  0
 46 94  1  0  0  0  0
 47 48  2  0  0  0  0
 47 95  1  0  0  0  0
 48 49  1  0  0  0  0
 48 51  1  0  0  0  0
 49 50  2  0  0  0  0
 49 96  1  0  0  0  0
 50 97  1  0  0  0  0
 53 98  1  0  0  0  0
 53 99  1  0  0  0  0
M  CHG  2  16   1  43   1
M  END
