CatS_235:1_D
 OpenBabel12041818463D

 89 93  0  0  1  0  0  0  0  0999 V2000
   41.9488   -7.4976   50.9316 C   0  0  0  0  0  0  0  0  0  0  0  0
   41.3521   -7.9980   49.6870 N   0  0  0  0  0  0  0  0  0  0  0  0
   41.9739   -7.7923   48.5162 C   0  0  0  0  0  0  0  0  0  0  0  0
   43.0363   -7.2001   48.3774 O   0  0  0  0  0  0  0  0  0  0  0  0
   41.2421   -8.3940   47.3738 C   0  0  0  0  0  0  0  0  0  0  0  0
   40.6510   -9.4270   47.6573 O   0  0  0  0  0  0  0  0  0  0  0  0
   41.2520   -7.8303   46.1511 N   0  0  0  0  0  0  0  0  0  0  0  0
   40.6081   -8.5358   45.0255 C   0  0  0  0  0  0  0  0  0  0  0  0
   39.7157   -7.6035   44.1802 C   0  0  0  0  0  0  0  0  0  0  0  0
   40.3786   -6.2568   43.9330 C   0  0  0  0  0  0  0  0  0  0  0  0
   41.3512   -5.7834   44.7202 C   0  0  0  0  0  0  0  0  0  0  0  0
   41.6368   -4.5111   44.1706 C   0  0  0  0  0  0  0  0  0  0  0  0
   40.8555   -4.3288   43.1273 N   0  0  0  0  0  0  0  0  0  0  0  0
   40.0472   -5.3943   42.9377 N   0  0  0  0  0  0  0  0  0  0  0  0
   39.0310   -5.4837   41.8807 C   0  0  0  0  0  0  0  0  0  0  0  0
   37.9466   -4.4040   42.0735 C   0  0  2  0  0  0  0  0  0  0  0  0
   36.5707   -4.8901   41.5717 C   0  0  0  0  0  0  0  0  0  0  0  0
   36.6593   -5.6182   40.2513 N   0  3  0  0  0  0  0  0  0  0  0  0
   36.5970   -7.1176   40.4145 C   0  0  0  0  0  0  0  0  0  0  0  0
   36.8125   -7.8358   39.0667 C   0  0  0  0  0  0  0  0  0  0  0  0
   35.7916   -7.3333   38.0271 C   0  0  0  0  0  0  0  0  0  0  0  0
   35.8987   -5.8039   37.8703 C   0  0  0  0  0  0  0  0  0  0  0  0
   35.6690   -5.1128   39.2305 C   0  0  0  0  0  0  0  0  0  0  0  0
   38.3282   -3.2164   41.3653 O   0  0  0  0  0  0  0  0  0  0  0  0
   42.5874   -3.5056   44.6195 C   0  0  0  0  0  0  0  0  0  0  0  0
   43.9420   -3.7597   44.5231 C   0  0  0  0  0  0  0  0  0  0  0  0
   44.8648   -2.8202   44.9168 C   0  0  0  0  0  0  0  0  0  0  0  0
   44.4764   -1.5959   45.4225 C   0  0  0  0  0  0  0  0  0  0  0  0
   43.1151   -1.3427   45.5283 C   0  0  0  0  0  0  0  0  0  0  0  0
   42.1891   -2.2825   45.1324 C   0  0  0  0  0  0  0  0  0  0  0  0
   42.4890    0.2076   46.1965 S   0  0  0  0  0  0  0  0  0  0  0  0
   41.0386   -0.1733   47.2182 C   0  0  0  0  0  0  0  0  0  0  0  0
   41.2603    0.2535   48.6872 C   0  0  0  0  0  0  0  0  0  0  0  0
   41.3819   -0.8977   49.6556 N   0  3  1  0  0  0  0  0  0  0  0  0
   40.0401   -1.3145   50.2070 C   0  0  0  0  0  0  0  0  0  0  0  0
   40.2027   -2.4089   51.2820 C   0  0  0  0  0  0  0  0  0  0  0  0
   40.9541   -3.6176   50.6926 C   0  0  1  0  0  0  0  0  0  0  0  0
   42.3313   -3.1746   50.1621 C   0  0  0  0  0  0  0  0  0  0  0  0
   42.1536   -2.0701   49.0999 C   0  0  0  0  0  0  0  0  0  0  0  0
   41.1281   -4.5764   51.6839 F   0  0  0  0  0  0  0  0  0  0  0  0
   45.5852   -0.6249   45.8283 C   0  0  0  0  0  0  0  0  0  0  0  0
   45.5194    0.5554   45.0948 F   0  0  0  0  0  0  0  0  0  0  0  0
   45.4733   -0.2867   47.1719 F   0  0  0  0  0  0  0  0  0  0  0  0
   46.8687   -1.1334   45.6484 F   0  0  0  0  0  0  0  0  0  0  0  0
   41.9250   -6.5341   45.9162 C   0  0  0  0  0  0  0  0  0  0  0  0
   37.8664   -4.2103   43.0513 H   0  0  0  0  0  0  0  0  0  0  0  0
   41.3514   -7.7353   51.6976 H   0  0  0  0  0  0  0  0  0  0  0  0
   42.8489   -7.9124   51.0653 H   0  0  0  0  0  0  0  0  0  0  0  0
   42.0526   -6.5044   50.8797 H   0  0  0  0  0  0  0  0  0  0  0  0
   40.5849   -8.4290   49.7084 H   0  0  0  0  0  0  0  0  0  0  0  0
   40.0465   -9.2789   45.3894 H   0  0  0  0  0  0  0  0  0  0  0  0
   41.3321   -8.8847   44.4304 H   0  0  0  0  0  0  0  0  0  0  0  0
   38.8509   -7.4578   44.6608 H   0  0  0  0  0  0  0  0  0  0  0  0
   39.5627   -8.0401   43.2937 H   0  0  0  0  0  0  0  0  0  0  0  0
   38.6056   -6.3882   41.9080 H   0  0  0  0  0  0  0  0  0  0  0  0
   39.4740   -5.3378   40.9961 H   0  0  0  0  0  0  0  0  0  0  0  0
   35.9693   -4.0984   41.4642 H   0  0  0  0  0  0  0  0  0  0  0  0
   36.2113   -5.5333   42.2478 H   0  0  0  0  0  0  0  0  0  0  0  0
   37.4819   -5.4349   39.9055 H   0  0  0  0  0  0  0  0  0  0  0  0
   35.7019   -7.3701   40.7819 H   0  0  0  0  0  0  0  0  0  0  0  0
   37.3246   -7.3979   41.0406 H   0  0  0  0  0  0  0  0  0  0  0  0
   36.7005   -8.8213   39.1940 H   0  0  0  0  0  0  0  0  0  0  0  0
   37.7360   -7.6399   38.7366 H   0  0  0  0  0  0  0  0  0  0  0  0
   34.8682   -7.5732   38.3265 H   0  0  0  0  0  0  0  0  0  0  0  0
   35.9853   -7.7643   37.1458 H   0  0  0  0  0  0  0  0  0  0  0  0
   35.2113   -5.4883   37.2160 H   0  0  0  0  0  0  0  0  0  0  0  0
   36.8131   -5.5728   37.5378 H   0  0  0  0  0  0  0  0  0  0  0  0
   35.7792   -4.1246   39.1236 H   0  0  0  0  0  0  0  0  0  0  0  0
   34.7432   -5.3206   39.5464 H   0  0  0  0  0  0  0  0  0  0  0  0
   38.9401   -2.6412   41.9191 H   0  0  0  0  0  0  0  0  0  0  0  0
   44.2550   -4.6382   44.1623 H   0  0  0  0  0  0  0  0  0  0  0  0
   45.8395   -3.0283   44.8351 H   0  0  0  0  0  0  0  0  0  0  0  0
   41.2138   -2.0783   45.2167 H   0  0  0  0  0  0  0  0  0  0  0  0
   40.8639   -1.1574   47.1848 H   0  0  0  0  0  0  0  0  0  0  0  0
   40.2559    0.3340   46.8576 H   0  0  0  0  0  0  0  0  0  0  0  0
   40.4887    0.8235   48.9693 H   0  0  0  0  0  0  0  0  0  0  0  0
   42.1320    0.7430   48.7149 H   0  0  0  0  0  0  0  0  0  0  0  0
   41.8563   -0.5839   50.3680 H   0  0  0  0  0  0  0  0  0  0  0  0
   39.4730   -1.6656   49.4619 H   0  0  0  0  0  0  0  0  0  0  0  0
   39.6059   -0.5176   50.6271 H   0  0  0  0  0  0  0  0  0  0  0  0
   39.3003   -2.6994   51.6002 H   0  0  0  0  0  0  0  0  0  0  0  0
   40.7270   -2.0399   52.0494 H   0  0  0  0  0  0  0  0  0  0  0  0
   40.4209   -4.0013   49.9386 H   0  0  0  0  0  0  0  0  0  0  0  0
   42.7990   -3.9587   49.7539 H   0  0  0  0  0  0  0  0  0  0  0  0
   42.8765   -2.8165   50.9200 H   0  0  0  0  0  0  0  0  0  0  0  0
   43.0538   -1.7564   48.7980 H   0  0  0  0  0  0  0  0  0  0  0  0
   41.6400   -2.4513   48.3311 H   0  0  0  0  0  0  0  0  0  0  0  0
   42.8978   -6.7013   45.7558 H   0  0  0  0  0  0  0  0  0  0  0  0
   41.7793   -5.9665   46.7265 H   0  0  0  0  0  0  0  0  0  0  0  0
  1  2  1  0  0  0  0
  1 47  1  0  0  0  0
  1 48  1  0  0  0  0
  1 49  1  0  0  0  0
  2  3  1  0  0  0  0
  2 50  1  0  0  0  0
  3  4  2  0  0  0  0
  3  5  1  0  0  0  0
  5  6  2  0  0  0  0
  5  7  1  0  0  0  0
  7  8  1  0  0  0  0
  7 45  1  0  0  0  0
  8  9  1  0  0  0  0
  8 51  1  0  0  0  0
  8 52  1  0  0  0  0
  9 10  1  0  0  0  0
  9 53  1  0  0  0  0
  9 54  1  0  0  0  0
 10 11  2  0  0  0  0
 10 14  1  0  0  0  0
 11 12  1  0  0  0  0
 11 45  1  0  0  0  0
 12 13  2  0  0  0  0
 12 25  1  0  0  0  0
 13 14  1  0  0  0  0
 14 15  1  0  0  0  0
 15 16  1  0  0  0  0
 15 55  1  0  0  0  0
 15 56  1  0  0  0  0
 16 17  1  0  0  0  0
 16 24  1  0  0  0  0
 16 46  1  1  0  0  0
 17 18  1  0  0  0  0
 17 57  1  0  0  0  0
 17 58  1  0  0  0  0
 18 19  1  0  0  0  0
 18 23  1  0  0  0  0
 18 59  1  0  0  0  0
 19 20  1  0  0  0  0
 19 60  1  0  0  0  0
 19 61  1  0  0  0  0
 20 21  1  0  0  0  0
 20 62  1  0  0  0  0
 20 63  1  0  0  0  0
 21 22  1  0  0  0  0
 21 64  1  0  0  0  0
 21 65  1  0  0  0  0
 22 23  1  0  0  0  0
 22 66  1  0  0  0  0
 22 67  1  0  0  0  0
 23 68  1  0  0  0  0
 23 69  1  0  0  0  0
 24 70  1  0  0  0  0
 25 26  2  0  0  0  0
 25 30  1  0  0  0  0
 26 27  1  0  0  0  0
 26 71  1  0  0  0  0
 27 28  2  0  0  0  0
 27 72  1  0  0  0  0
 28 29  1  0  0  0  0
 28 41  1  0  0  0  0
 29 30  2  0  0  0  0
 29 31  1  0  0  0  0
 30 73  1  0  0  0  0
 31 32  1  0  0  0  0
 32 33  1  0  0  0  0
 32 74  1  0  0  0  0
 32 75  1  0  0  0  0
 33 34  1  0  0  0  0
 33 76  1  0  0  0  0
 33 77  1  0  0  0  0
 34 35  1  0  0  0  0
 34 39  1  0  0  0  0
 34 78  1  1  0  0  0
 35 36  1  0  0  0  0
 35 79  1  0  0  0  0
 35 80  1  0  0  0  0
 36 37  1  0  0  0  0
 36 81  1  0  0  0  0
 36 82  1  0  0  0  0
 37 38  1  0  0  0  0
 37 40  1  0  0  0  0
 37 83  1  6  0  0  0
 38 39  1  0  0  0  0
 38 84  1  0  0  0  0
 38 85  1  0  0  0  0
 39 86  1  0  0  0  0
 39 87  1  0  0  0  0
 41 42  1  0  0  0  0
 41 43  1  0  0  0  0
 41 44  1  0  0  0  0
 45 88  1  0  0  0  0
 45 89  1  0  0  0  0
M  CHG  2  18   1  34   1
M  END
