CatS_201:1_D
 OpenBabel12041818463D

 90 94  0  0  1  0  0  0  0  0999 V2000
   50.6482   -2.9589   40.2042 C   0  0  0  0  0  0  0  0  0  0  0  0
   49.5903   -1.9807   40.6515 C   0  0  0  0  0  0  0  0  0  0  0  0
   49.7542   -0.7689   40.6209 O   0  0  0  0  0  0  0  0  0  0  0  0
   48.4812   -2.6027   41.0799 N   0  0  0  0  0  0  0  0  0  0  0  0
   47.3416   -1.8107   41.5602 C   0  0  2  0  0  0  0  0  0  0  0  0
   47.0613   -2.1506   43.0365 C   0  0  0  0  0  0  0  0  0  0  0  0
   45.8742   -1.3132   43.5549 C   0  0  0  0  0  0  0  0  0  0  0  0
   44.6441   -1.5358   42.7068 N   0  3  1  0  0  0  0  0  0  0  0  0
   44.8990   -1.2609   41.2450 C   0  0  0  0  0  0  0  0  0  0  0  0
   46.0835   -2.0942   40.7163 C   0  0  0  0  0  0  0  0  0  0  0  0
   44.0134   -2.8901   42.9042 C   0  0  0  0  0  0  0  0  0  0  0  0
   43.8612   -3.3064   44.3833 C   0  0  1  0  0  0  0  0  0  0  0  0
   42.3627   -3.4095   44.7280 C   0  0  0  0  0  0  0  0  0  0  0  0
   41.4753   -4.4869   44.2552 N   0  0  0  0  0  0  0  0  0  0  0  0
   41.1826   -5.7282   44.7368 C   0  0  0  0  0  0  0  0  0  0  0  0
   40.1865   -6.3222   44.0678 C   0  0  0  0  0  0  0  0  0  0  0  0
   39.8536   -5.3827   43.0658 C   0  0  0  0  0  0  0  0  0  0  0  0
   40.6335   -4.3371   43.2105 N   0  0  0  0  0  0  0  0  0  0  0  0
   38.8622   -5.4531   42.0062 C   0  0  0  0  0  0  0  0  0  0  0  0
   37.7647   -4.6120   41.9332 C   0  0  0  0  0  0  0  0  0  0  0  0
   36.8741   -4.7176   40.8896 C   0  0  0  0  0  0  0  0  0  0  0  0
   37.0399   -5.6572   39.8913 C   0  0  0  0  0  0  0  0  0  0  0  0
   38.1377   -6.5034   39.9726 C   0  0  0  0  0  0  0  0  0  0  0  0
   39.0289   -6.3977   41.0142 C   0  0  0  0  0  0  0  0  0  0  0  0
   38.4411   -7.7940   38.7538 S   0  0  0  0  0  0  0  0  0  0  0  0
   40.1685   -8.3529   38.8208 C   0  0  0  0  0  0  0  0  0  0  0  0
   40.6042   -8.9950   37.4886 C   0  0  0  0  0  0  0  0  0  0  0  0
   42.0845   -8.8999   37.2234 N   0  3  0  0  0  0  0  0  0  0  0  0
   42.5808   -7.5279   36.8656 C   0  0  0  0  0  0  0  0  0  0  0  0
   43.9457   -7.7995   36.2085 C   0  0  0  0  0  0  0  0  0  0  0  0
   43.8967   -9.2519   35.6894 C   0  0  0  0  0  0  0  0  0  0  0  0
   42.5473   -9.8356   36.1458 C   0  0  0  0  0  0  0  0  0  0  0  0
   35.9892   -5.6858   38.7822 C   0  0  0  0  0  0  0  0  0  0  0  0
   36.5115   -5.1998   37.5886 F   0  0  0  0  0  0  0  0  0  0  0  0
   34.8952   -4.8939   39.1125 F   0  0  0  0  0  0  0  0  0  0  0  0
   35.4945   -6.9595   38.5138 F   0  0  0  0  0  0  0  0  0  0  0  0
   39.6250   -7.7013   44.3915 C   0  0  0  0  0  0  0  0  0  0  0  0
   40.3306   -8.3607   45.5102 N   0  0  0  0  0  0  0  0  0  0  0  0
   41.7049   -7.9502   45.8603 C   0  0  0  0  0  0  0  0  0  0  0  0
   41.8774   -6.4158   45.9026 C   0  0  0  0  0  0  0  0  0  0  0  0
   39.7121   -9.3476   46.1851 C   0  0  0  0  0  0  0  0  0  0  0  0
   38.5480   -9.6860   46.0190 O   0  0  0  0  0  0  0  0  0  0  0  0
   40.4299  -10.1247   47.2231 C   0  0  0  0  0  0  0  0  0  0  0  0
   40.5852   -9.6394   48.3344 O   0  0  0  0  0  0  0  0  0  0  0  0
   40.8439  -11.3450   46.8578 N   0  0  0  0  0  0  0  0  0  0  0  0
   44.5123   -4.5619   44.6286 O   0  0  0  0  0  0  0  0  0  0  0  0
   44.2934   -2.6153   44.9627 H   0  0  0  0  0  0  0  0  0  0  0  0
   50.3010   -3.8896   40.3201 H   0  0  0  0  0  0  0  0  0  0  0  0
   50.8704   -2.7998   39.2421 H   0  0  0  0  0  0  0  0  0  0  0  0
   51.4745   -2.8359   40.7537 H   0  0  0  0  0  0  0  0  0  0  0  0
   48.4372   -3.4829   41.0839 H   0  0  0  0  0  0  0  0  0  0  0  0
   47.5699   -0.8409   41.4744 H   0  0  0  0  0  0  0  0  0  0  0  0
   47.8742   -1.9514   43.5838 H   0  0  0  0  0  0  0  0  0  0  0  0
   46.8341   -3.1215   43.1121 H   0  0  0  0  0  0  0  0  0  0  0  0
   46.1203   -0.3443   43.5308 H   0  0  0  0  0  0  0  0  0  0  0  0
   45.6695   -1.5966   44.4918 H   0  0  0  0  0  0  0  0  0  0  0  0
   44.0255   -0.9233   42.9774 H   0  0  0  0  0  0  0  0  0  0  0  0
   45.1021   -0.2890   41.1254 H   0  0  0  0  0  0  0  0  0  0  0  0
   44.0809   -1.5148   40.7289 H   0  0  0  0  0  0  0  0  0  0  0  0
   45.8583   -3.0670   40.7704 H   0  0  0  0  0  0  0  0  0  0  0  0
   46.2621   -1.8440   39.7647 H   0  0  0  0  0  0  0  0  0  0  0  0
   44.5791   -3.5719   42.4403 H   0  0  0  0  0  0  0  0  0  0  0  0
   43.0895   -2.8352   42.5255 H   0  0  0  0  0  0  0  0  0  0  0  0
   41.9512   -2.5569   44.4059 H   0  0  0  0  0  0  0  0  0  0  0  0
   42.4092   -3.6218   45.7041 H   0  0  0  0  0  0  0  0  0  0  0  0
   37.6184   -3.9233   42.6433 H   0  0  0  0  0  0  0  0  0  0  0  0
   36.0887   -4.0997   40.8532 H   0  0  0  0  0  0  0  0  0  0  0  0
   39.8130   -7.0172   41.0537 H   0  0  0  0  0  0  0  0  0  0  0  0
   40.2665   -9.0240   39.5557 H   0  0  0  0  0  0  0  0  0  0  0  0
   40.7501   -7.5573   38.9902 H   0  0  0  0  0  0  0  0  0  0  0  0
   40.1180   -8.5389   36.7432 H   0  0  0  0  0  0  0  0  0  0  0  0
   40.3822   -9.9682   37.5481 H   0  0  0  0  0  0  0  0  0  0  0  0
   42.5161   -9.1515   37.9863 H   0  0  0  0  0  0  0  0  0  0  0  0
   42.6809   -6.9582   37.6814 H   0  0  0  0  0  0  0  0  0  0  0  0
   41.9533   -7.0308   36.2664 H   0  0  0  0  0  0  0  0  0  0  0  0
   44.6811   -7.6931   36.8778 H   0  0  0  0  0  0  0  0  0  0  0  0
   44.1252   -7.1553   35.4650 H   0  0  0  0  0  0  0  0  0  0  0  0
   44.6527   -9.7828   36.0721 H   0  0  0  0  0  0  0  0  0  0  0  0
   43.9837   -9.2825   34.6935 H   0  0  0  0  0  0  0  0  0  0  0  0
   41.8938   -9.8581   35.3892 H   0  0  0  0  0  0  0  0  0  0  0  0
   42.6294  -10.7787   36.4681 H   0  0  0  0  0  0  0  0  0  0  0  0
   39.7021   -8.2779   43.5781 H   0  0  0  0  0  0  0  0  0  0  0  0
   38.6720   -7.5798   44.6691 H   0  0  0  0  0  0  0  0  0  0  0  0
   42.3353   -8.3268   45.1814 H   0  0  0  0  0  0  0  0  0  0  0  0
   41.8995   -8.2996   46.7768 H   0  0  0  0  0  0  0  0  0  0  0  0
   41.4932   -6.0693   46.7584 H   0  0  0  0  0  0  0  0  0  0  0  0
   42.8550   -6.2158   45.8389 H   0  0  0  0  0  0  0  0  0  0  0  0
   40.6967  -11.6327   46.0393 H   0  0  0  0  0  0  0  0  0  0  0  0
   41.2618  -11.8596   47.4365 H   0  0  0  0  0  0  0  0  0  0  0  0
   45.2638   -4.7195   43.9789 H   0  0  0  0  0  0  0  0  0  0  0  0
  1  2  1  0  0  0  0
  1 48  1  0  0  0  0
  1 49  1  0  0  0  0
  1 50  1  0  0  0  0
  2  3  2  0  0  0  0
  2  4  1  0  0  0  0
  4  5  1  0  0  0  0
  4 51  1  0  0  0  0
  5  6  1  0  0  0  0
  5 10  1  0  0  0  0
  5 52  1  6  0  0  0
  6  7  1  0  0  0  0
  6 53  1  0  0  0  0
  6 54  1  0  0  0  0
  7  8  1  0  0  0  0
  7 55  1  0  0  0  0
  7 56  1  0  0  0  0
  8  9  1  0  0  0  0
  8 11  1  0  0  0  0
  8 57  1  1  0  0  0
  9 10  1  0  0  0  0
  9 58  1  0  0  0  0
  9 59  1  0  0  0  0
 10 60  1  0  0  0  0
 10 61  1  0  0  0  0
 11 12  1  0  0  0  0
 11 62  1  0  0  0  0
 11 63  1  0  0  0  0
 12 13  1  0  0  0  0
 12 46  1  0  0  0  0
 12 47  1  1  0  0  0
 13 14  1  0  0  0  0
 13 64  1  0  0  0  0
 13 65  1  0  0  0  0
 14 15  1  0  0  0  0
 14 18  1  0  0  0  0
 15 16  2  0  0  0  0
 15 40  1  0  0  0  0
 16 17  1  0  0  0  0
 16 37  1  0  0  0  0
 17 18  2  0  0  0  0
 17 19  1  0  0  0  0
 19 20  2  0  0  0  0
 19 24  1  0  0  0  0
 20 21  1  0  0  0  0
 20 66  1  0  0  0  0
 21 22  2  0  0  0  0
 21 67  1  0  0  0  0
 22 23  1  0  0  0  0
 22 33  1  0  0  0  0
 23 24  2  0  0  0  0
 23 25  1  0  0  0  0
 24 68  1  0  0  0  0
 25 26  1  0  0  0  0
 26 27  1  0  0  0  0
 26 69  1  0  0  0  0
 26 70  1  0  0  0  0
 27 28  1  0  0  0  0
 27 71  1  0  0  0  0
 27 72  1  0  0  0  0
 28 29  1  0  0  0  0
 28 32  1  0  0  0  0
 28 73  1  0  0  0  0
 29 30  1  0  0  0  0
 29 74  1  0  0  0  0
 29 75  1  0  0  0  0
 30 31  1  0  0  0  0
 30 76  1  0  0  0  0
 30 77  1  0  0  0  0
 31 32  1  0  0  0  0
 31 78  1  0  0  0  0
 31 79  1  0  0  0  0
 32 80  1  0  0  0  0
 32 81  1  0  0  0  0
 33 34  1  0  0  0  0
 33 35  1  0  0  0  0
 33 36  1  0  0  0  0
 37 38  1  0  0  0  0
 37 82  1  0  0  0  0
 37 83  1  0  0  0  0
 38 39  1  0  0  0  0
 38 41  1  0  0  0  0
 39 40  1  0  0  0  0
 39 84  1  0  0  0  0
 39 85  1  0  0  0  0
 40 86  1  0  0  0  0
 40 87  1  0  0  0  0
 41 42  2  0  0  0  0
 41 43  1  0  0  0  0
 43 44  2  0  0  0  0
 43 45  1  0  0  0  0
 45 88  1  0  0  0  0
 45 89  1  0  0  0  0
 46 90  1  0  0  0  0
M  CHG  2   8   1  28   1
M  END
