CatS_2:1_D
 OpenBabel12041818463D

 92 97  0  0  0  0  0  0  0  0999 V2000
   40.1114  -10.7567   45.5018 C   0  0  0  0  0  0  0  0  0  0  0  0
   39.6199   -9.3965   46.5946 S   0  0  0  0  0  0  0  0  0  0  0  0
   40.2038   -9.6122   47.8776 O   0  0  0  0  0  0  0  0  0  0  0  0
   38.2024   -9.2591   46.5145 O   0  0  0  0  0  0  0  0  0  0  0  0
   40.2273   -8.0104   46.0102 N   0  0  0  0  0  0  0  0  0  0  0  0
   41.6924   -7.8762   46.1182 C   0  0  0  0  0  0  0  0  0  0  0  0
   42.0644   -6.3815   46.1678 C   0  0  0  0  0  0  0  0  0  0  0  0
   41.4164   -5.5968   45.0366 C   0  0  0  0  0  0  0  0  0  0  0  0
   40.3889   -6.1263   44.3658 C   0  0  0  0  0  0  0  0  0  0  0  0
   40.1045   -5.1607   43.3741 C   0  0  0  0  0  0  0  0  0  0  0  0
   40.9243   -4.1460   43.5451 N   0  0  0  0  0  0  0  0  0  0  0  0
   41.7790   -4.3653   44.5762 N   0  0  0  0  0  0  0  0  0  0  0  0
   42.9304   -3.4912   44.8850 C   0  0  0  0  0  0  0  0  0  0  0  0
   44.1774   -3.2979   43.9871 C   0  0  0  0  0  0  0  0  0  0  0  0
   44.2982   -1.8277   43.5481 C   0  0  0  0  0  0  0  0  0  0  0  0
   45.2830   -1.4562   42.4693 N   0  3  2  0  0  0  0  0  0  0  0  0
   44.7934   -1.7998   41.0771 C   0  0  0  0  0  0  0  0  0  0  0  0
   45.8893   -1.6584   39.9960 C   0  0  0  0  0  0  0  0  0  0  0  0
   47.1229   -2.5029   40.3810 C   0  0  2  0  0  0  0  0  0  0  0  0
   47.6762   -1.9130   41.6921 C   0  0  0  0  0  0  0  0  0  0  0  0
   46.6236   -2.0714   42.8033 C   0  0  0  0  0  0  0  0  0  0  0  0
   48.2055   -2.7400   39.4048 N   0  0  0  0  0  0  0  0  0  0  0  0
   49.2105   -1.7096   39.1152 C   0  0  0  0  0  0  0  0  0  0  0  0
   50.3183   -2.5830   38.5028 C   0  0  0  0  0  0  0  0  0  0  0  0
   49.6001   -3.8000   37.8981 C   0  0  0  0  0  0  0  0  0  0  0  0
   48.3591   -3.8969   38.7458 C   0  0  0  0  0  0  0  0  0  0  0  0
   47.6434   -4.8859   38.8122 O   0  0  0  0  0  0  0  0  0  0  0  0
   39.1401   -5.2381   42.2871 C   0  0  0  0  0  0  0  0  0  0  0  0
   38.1906   -4.2578   42.0688 C   0  0  0  0  0  0  0  0  0  0  0  0
   37.2695   -4.3914   41.0586 C   0  0  0  0  0  0  0  0  0  0  0  0
   37.2666   -5.4967   40.2332 C   0  0  0  0  0  0  0  0  0  0  0  0
   38.2224   -6.4827   40.4277 C   0  0  0  0  0  0  0  0  0  0  0  0
   39.1413   -6.3364   41.4460 C   0  0  0  0  0  0  0  0  0  0  0  0
   38.2869   -7.7476   39.5718 C   0  0  0  0  0  0  0  0  0  0  0  0
   39.6224   -8.3650   39.4914 N   0  0  0  0  0  0  0  0  0  0  0  0
   40.2758   -8.4019   38.3177 C   0  0  0  0  0  0  0  0  0  0  0  0
   39.8792   -7.8990   37.2756 O   0  0  0  0  0  0  0  0  0  0  0  0
   41.5729   -9.1772   38.3937 C   0  0  0  0  0  0  0  0  0  0  0  0
   42.4353   -8.9234   37.1725 C   0  0  0  0  0  0  0  0  0  0  0  0
   42.7859  -10.0124   36.4111 C   0  0  0  0  0  0  0  0  0  0  0  0
   43.5640   -9.8254   35.3002 C   0  0  0  0  0  0  0  0  0  0  0  0
   43.9670   -8.5540   34.9895 C   0  0  0  0  0  0  0  0  0  0  0  0
   43.5815   -7.5121   35.7982 C   0  0  0  0  0  0  0  0  0  0  0  0
   42.8170   -7.6609   36.8981 N   0  0  0  0  0  0  0  0  0  0  0  0
   36.1568   -5.5362   39.1839 C   0  0  0  0  0  0  0  0  0  0  0  0
   35.5742   -6.7983   39.1565 F   0  0  0  0  0  0  0  0  0  0  0  0
   36.5835   -5.2555   37.8930 F   0  0  0  0  0  0  0  0  0  0  0  0
   35.1367   -4.6286   39.4582 F   0  0  0  0  0  0  0  0  0  0  0  0
   39.7946   -7.4952   44.6912 C   0  0  0  0  0  0  0  0  0  0  0  0
   40.6610  -10.3893   44.7515 H   0  0  0  0  0  0  0  0  0  0  0  0
   40.6479  -11.4261   46.0158 H   0  0  0  0  0  0  0  0  0  0  0  0
   39.2963  -11.2054   45.1352 H   0  0  0  0  0  0  0  0  0  0  0  0
   42.1279   -8.3054   45.3269 H   0  0  0  0  0  0  0  0  0  0  0  0
   42.0094   -8.3270   46.9526 H   0  0  0  0  0  0  0  0  0  0  0  0
   43.0580   -6.2919   46.0988 H   0  0  0  0  0  0  0  0  0  0  0  0
   41.7301   -6.0080   47.0330 H   0  0  0  0  0  0  0  0  0  0  0  0
   43.2818   -3.8151   45.7635 H   0  0  0  0  0  0  0  0  0  0  0  0
   42.5016   -2.5936   44.7832 H   0  0  0  0  0  0  0  0  0  0  0  0
   44.0967   -3.8805   43.1783 H   0  0  0  0  0  0  0  0  0  0  0  0
   44.9940   -3.5486   44.5070 H   0  0  0  0  0  0  0  0  0  0  0  0
   44.5402   -1.2985   44.3614 H   0  0  0  0  0  0  0  0  0  0  0  0
   43.4101   -1.6323   43.1321 H   0  0  0  0  0  0  0  0  0  0  0  0
   45.3946   -0.5526   42.5003 H   0  0  0  0  0  0  0  0  0  0  0  0
   44.0345   -1.1909   40.8459 H   0  0  0  0  0  0  0  0  0  0  0  0
   44.5106   -2.7589   41.0891 H   0  0  0  0  0  0  0  0  0  0  0  0
   46.1547   -0.6977   39.9151 H   0  0  0  0  0  0  0  0  0  0  0  0
   45.5307   -1.9834   39.1209 H   0  0  0  0  0  0  0  0  0  0  0  0
   46.7678   -3.4350   40.4527 H   0  0  0  0  0  0  0  0  0  0  0  0
   47.8857   -0.9439   41.5620 H   0  0  0  0  0  0  0  0  0  0  0  0
   48.5117   -2.3973   41.9513 H   0  0  0  0  0  0  0  0  0  0  0  0
   46.4895   -3.0471   42.9766 H   0  0  0  0  0  0  0  0  0  0  0  0
   46.9740   -1.5863   43.6045 H   0  0  0  0  0  0  0  0  0  0  0  0
   49.5174   -1.2440   39.9453 H   0  0  0  0  0  0  0  0  0  0  0  0
   48.8924   -0.9630   38.5310 H   0  0  0  0  0  0  0  0  0  0  0  0
   50.9668   -2.8717   39.2073 H   0  0  0  0  0  0  0  0  0  0  0  0
   50.8431   -2.0844   37.8129 H   0  0  0  0  0  0  0  0  0  0  0  0
   50.1585   -4.6261   37.9734 H   0  0  0  0  0  0  0  0  0  0  0  0
   49.4091   -3.7063   36.9210 H   0  0  0  0  0  0  0  0  0  0  0  0
   38.1741   -3.4448   42.6508 H   0  0  0  0  0  0  0  0  0  0  0  0
   36.5877   -3.6734   40.9187 H   0  0  0  0  0  0  0  0  0  0  0  0
   39.8312   -7.0477   41.5806 H   0  0  0  0  0  0  0  0  0  0  0  0
   37.9918   -7.5144   38.6452 H   0  0  0  0  0  0  0  0  0  0  0  0
   37.6913   -8.4191   40.0127 H   0  0  0  0  0  0  0  0  0  0  0  0
   39.9782   -8.7230   40.2132 H   0  0  0  0  0  0  0  0  0  0  0  0
   41.3677  -10.1541   38.4541 H   0  0  0  0  0  0  0  0  0  0  0  0
   42.0757   -8.8746   39.2035 H   0  0  0  0  0  0  0  0  0  0  0  0
   42.4769  -10.9290   36.6650 H   0  0  0  0  0  0  0  0  0  0  0  0
   43.8323  -10.6004   34.7281 H   0  0  0  0  0  0  0  0  0  0  0  0
   44.5349   -8.3859   34.1837 H   0  0  0  0  0  0  0  0  0  0  0  0
   43.8857   -6.5906   35.5568 H   0  0  0  0  0  0  0  0  0  0  0  0
   38.7973   -7.4223   44.6867 H   0  0  0  0  0  0  0  0  0  0  0  0
   40.1208   -8.1361   43.9964 H   0  0  0  0  0  0  0  0  0  0  0  0
  1  2  1  0  0  0  0
  1 50  1  0  0  0  0
  1 51  1  0  0  0  0
  1 52  1  0  0  0  0
  2  3  2  0  0  0  0
  2  4  2  0  0  0  0
  2  5  1  0  0  0  0
  5  6  1  0  0  0  0
  5 49  1  0  0  0  0
  6  7  1  0  0  0  0
  6 53  1  0  0  0  0
  6 54  1  0  0  0  0
  7  8  1  0  0  0  0
  7 55  1  0  0  0  0
  7 56  1  0  0  0  0
  8  9  2  0  0  0  0
  8 12  1  0  0  0  0
  9 10  1  0  0  0  0
  9 49  1  0  0  0  0
 10 11  2  0  0  0  0
 10 28  1  0  0  0  0
 11 12  1  0  0  0  0
 12 13  1  0  0  0  0
 13 14  1  0  0  0  0
 13 57  1  0  0  0  0
 13 58  1  0  0  0  0
 14 15  1  0  0  0  0
 14 59  1  0  0  0  0
 14 60  1  0  0  0  0
 15 16  1  0  0  0  0
 15 61  1  0  0  0  0
 15 62  1  0  0  0  0
 16 17  1  0  0  0  0
 16 21  1  0  0  0  0
 16 63  1  1  0  0  0
 17 18  1  0  0  0  0
 17 64  1  0  0  0  0
 17 65  1  0  0  0  0
 18 19  1  0  0  0  0
 18 66  1  0  0  0  0
 18 67  1  0  0  0  0
 19 20  1  0  0  0  0
 19 22  1  0  0  0  0
 19 68  1  1  0  0  0
 20 21  1  0  0  0  0
 20 69  1  0  0  0  0
 20 70  1  0  0  0  0
 21 71  1  0  0  0  0
 21 72  1  0  0  0  0
 22 23  1  0  0  0  0
 22 26  1  0  0  0  0
 23 24  1  0  0  0  0
 23 73  1  0  0  0  0
 23 74  1  0  0  0  0
 24 25  1  0  0  0  0
 24 75  1  0  0  0  0
 24 76  1  0  0  0  0
 25 26  1  0  0  0  0
 25 77  1  0  0  0  0
 25 78  1  0  0  0  0
 26 27  2  0  0  0  0
 28 29  2  0  0  0  0
 28 33  1  0  0  0  0
 29 30  1  0  0  0  0
 29 79  1  0  0  0  0
 30 31  2  0  0  0  0
 30 80  1  0  0  0  0
 31 32  1  0  0  0  0
 31 45  1  0  0  0  0
 32 33  2  0  0  0  0
 32 34  1  0  0  0  0
 33 81  1  0  0  0  0
 34 35  1  0  0  0  0
 34 82  1  0  0  0  0
 34 83  1  0  0  0  0
 35 36  1  0  0  0  0
 35 84  1  0  0  0  0
 36 37  2  0  0  0  0
 36 38  1  0  0  0  0
 38 39  1  0  0  0  0
 38 85  1  0  0  0  0
 38 86  1  0  0  0  0
 39 40  2  0  0  0  0
 39 44  1  0  0  0  0
 40 41  1  0  0  0  0
 40 87  1  0  0  0  0
 41 42  2  0  0  0  0
 41 88  1  0  0  0  0
 42 43  1  0  0  0  0
 42 89  1  0  0  0  0
 43 44  2  0  0  0  0
 43 90  1  0  0  0  0
 45 46  1  0  0  0  0
 45 47  1  0  0  0  0
 45 48  1  0  0  0  0
 49 91  1  0  0  0  0
 49 92  1  0  0  0  0
M  CHG  1  16   1
M  END
