CatS_268:1_D
 OpenBabel12041818463D

 91 97  0  0  0  0  0  0  0  0999 V2000
   44.1812   -1.3167   44.3679 C   0  0  0  0  0  0  0  0  0  0  0  0
   42.9060   -1.4205   45.6548 S   0  0  0  0  0  0  0  0  0  0  0  0
   41.7653   -0.6873   45.2147 O   0  0  0  0  0  0  0  0  0  0  0  0
   43.4858   -1.0113   46.8901 O   0  0  0  0  0  0  0  0  0  0  0  0
   42.4590   -2.9735   45.8597 N   0  0  0  0  0  0  0  0  0  0  0  0
   43.4757   -3.9698   46.2578 C   0  0  0  0  0  0  0  0  0  0  0  0
   42.8163   -5.2829   46.7337 C   0  0  0  0  0  0  0  0  0  0  0  0
   41.9140   -5.8301   45.6446 C   0  0  0  0  0  0  0  0  0  0  0  0
   41.3826   -5.0057   44.7394 C   0  0  0  0  0  0  0  0  0  0  0  0
   40.6149   -5.8634   43.9184 C   0  0  0  0  0  0  0  0  0  0  0  0
   40.7425   -7.0910   44.3769 N   0  0  0  0  0  0  0  0  0  0  0  0
   41.5415   -7.1258   45.4684 N   0  0  0  0  0  0  0  0  0  0  0  0
   41.7577   -8.3278   46.2892 C   0  0  0  0  0  0  0  0  0  0  0  0
   40.9874   -8.5266   47.6156 C   0  0  0  0  0  0  0  0  0  0  0  0
   40.5622   -9.9992   47.8206 C   0  0  0  0  0  0  0  0  0  0  0  0
   40.3748  -10.8374   46.5798 N   0  3  2  0  0  0  0  0  0  0  0  0
   39.1045  -10.5208   45.8219 C   0  0  0  0  0  0  0  0  0  0  0  0
   38.8817  -11.5087   44.6604 C   0  0  0  0  0  0  0  0  0  0  0  0
   38.8708  -12.8853   45.1771 N   0  0  2  0  0  0  0  0  0  0  0  0
   40.1867  -13.2209   45.7398 C   0  0  0  0  0  0  0  0  0  0  0  0
   40.4809  -12.3007   46.9388 C   0  0  0  0  0  0  0  0  0  0  0  0
   38.5308  -13.8270   44.1026 C   0  0  0  0  0  0  0  0  0  0  0  0
   37.2332  -13.5109   43.3404 C   0  0  0  0  0  0  0  0  0  0  0  0
   37.2626  -14.6560   44.3642 C   0  0  0  0  0  0  0  0  0  0  0  0
   39.7926   -5.5440   42.7625 C   0  0  0  0  0  0  0  0  0  0  0  0
   39.2499   -4.2761   42.6526 C   0  0  0  0  0  0  0  0  0  0  0  0
   38.4847   -3.9344   41.5641 C   0  0  0  0  0  0  0  0  0  0  0  0
   38.2527   -4.8542   40.5649 C   0  0  0  0  0  0  0  0  0  0  0  0
   38.7830   -6.1241   40.6545 C   0  0  0  0  0  0  0  0  0  0  0  0
   39.5438   -6.4613   41.7527 C   0  0  0  0  0  0  0  0  0  0  0  0
   38.5023   -7.0923   39.5140 C   0  0  0  0  0  0  0  0  0  0  0  0
   39.4079   -8.3390   39.4129 C   0  0  0  0  0  0  0  0  0  0  0  0
   40.5633   -8.2774   38.4231 C   0  0  0  0  0  0  0  0  0  0  0  0
   41.3072   -7.1380   38.2029 C   0  0  0  0  0  0  0  0  0  0  0  0
   42.3437   -7.1464   37.2981 C   0  0  0  0  0  0  0  0  0  0  0  0
   42.6490   -8.2931   36.6008 C   0  0  0  0  0  0  0  0  0  0  0  0
   41.9092   -9.4401   36.8183 C   0  0  0  0  0  0  0  0  0  0  0  0
   40.8731   -9.4234   37.7253 C   0  0  0  0  0  0  0  0  0  0  0  0
   42.1974  -10.7318   36.0625 C   0  0  0  0  0  0  0  0  0  0  0  0
   43.5806  -10.7264   35.4631 N   0  3  0  0  0  0  0  0  0  0  0  0
   43.9017   -9.4820   34.6827 C   0  0  0  0  0  0  0  0  0  0  0  0
   43.8138   -8.2585   35.6187 C   0  0  0  0  0  0  0  0  0  0  0  0
   37.2914   -4.4060   39.1857 Cl  0  0  0  0  0  0  0  0  0  0  0  0
   41.6587   -3.5052   44.7283 C   0  0  0  0  0  0  0  0  0  0  0  0
   44.3719   -2.2361   44.0237 H   0  0  0  0  0  0  0  0  0  0  0  0
   43.8594   -0.7369   43.6194 H   0  0  0  0  0  0  0  0  0  0  0  0
   45.0151   -0.9201   44.7515 H   0  0  0  0  0  0  0  0  0  0  0  0
   44.0304   -3.5931   46.9997 H   0  0  0  0  0  0  0  0  0  0  0  0
   44.0464   -4.1741   45.4624 H   0  0  0  0  0  0  0  0  0  0  0  0
   42.2770   -5.1057   47.5569 H   0  0  0  0  0  0  0  0  0  0  0  0
   43.5287   -5.9542   46.9381 H   0  0  0  0  0  0  0  0  0  0  0  0
   42.7315   -8.3492   46.5156 H   0  0  0  0  0  0  0  0  0  0  0  0
   41.3967   -9.0599   45.7115 H   0  0  0  0  0  0  0  0  0  0  0  0
   40.1704   -7.9499   47.6063 H   0  0  0  0  0  0  0  0  0  0  0  0
   41.5956   -8.2734   48.3679 H   0  0  0  0  0  0  0  0  0  0  0  0
   39.6960   -9.9977   48.3201 H   0  0  0  0  0  0  0  0  0  0  0  0
   41.3260  -10.4243   48.3063 H   0  0  0  0  0  0  0  0  0  0  0  0
   41.0696  -10.6535   46.0200 H   0  0  0  0  0  0  0  0  0  0  0  0
   39.1653   -9.5923   45.4556 H   0  0  0  0  0  0  0  0  0  0  0  0
   38.3333  -10.6004   46.4535 H   0  0  0  0  0  0  0  0  0  0  0  0
   39.6174  -11.4080   43.9905 H   0  0  0  0  0  0  0  0  0  0  0  0
   38.0041  -11.3132   44.2227 H   0  0  0  0  0  0  0  0  0  0  0  0
   40.8913  -13.0977   45.0409 H   0  0  0  0  0  0  0  0  0  0  0  0
   40.1865  -14.1735   46.0440 H   0  0  0  0  0  0  0  0  0  0  0  0
   39.8282  -12.5019   47.6692 H   0  0  0  0  0  0  0  0  0  0  0  0
   41.4205  -12.4754   47.2328 H   0  0  0  0  0  0  0  0  0  0  0  0
   39.4734  -14.0286   43.8363 H   0  0  0  0  0  0  0  0  0  0  0  0
   37.1628  -13.7112   42.3632 H   0  0  0  0  0  0  0  0  0  0  0  0
   36.6710  -12.6944   43.2093 H   0  0  0  0  0  0  0  0  0  0  0  0
   36.7744  -14.5674   45.2323 H   0  0  0  0  0  0  0  0  0  0  0  0
   37.0374  -15.6300   44.3416 H   0  0  0  0  0  0  0  0  0  0  0  0
   39.4163   -3.6020   43.3723 H   0  0  0  0  0  0  0  0  0  0  0  0
   38.0951   -3.0159   41.4968 H   0  0  0  0  0  0  0  0  0  0  0  0
   39.9232   -7.3838   41.8228 H   0  0  0  0  0  0  0  0  0  0  0  0
   38.5882   -6.5840   38.6572 H   0  0  0  0  0  0  0  0  0  0  0  0
   37.5878   -7.4522   39.6988 H   0  0  0  0  0  0  0  0  0  0  0  0
   38.8294   -9.1135   39.1568 H   0  0  0  0  0  0  0  0  0  0  0  0
   39.8416   -8.4174   40.3106 H   0  0  0  0  0  0  0  0  0  0  0  0
   41.0923   -6.2999   38.7042 H   0  0  0  0  0  0  0  0  0  0  0  0
   42.8781   -6.3149   37.1464 H   0  0  0  0  0  0  0  0  0  0  0  0
   40.3387  -10.2545   37.8793 H   0  0  0  0  0  0  0  0  0  0  0  0
   41.5242  -10.8385   35.3307 H   0  0  0  0  0  0  0  0  0  0  0  0
   42.1409  -11.4921   36.7095 H   0  0  0  0  0  0  0  0  0  0  0  0
   43.6816  -11.4507   34.9199 H   0  0  0  0  0  0  0  0  0  0  0  0
   44.2022  -10.8477   36.1176 H   0  0  0  0  0  0  0  0  0  0  0  0
   43.2497   -9.3791   33.9315 H   0  0  0  0  0  0  0  0  0  0  0  0
   44.8260   -9.5504   34.3074 H   0  0  0  0  0  0  0  0  0  0  0  0
   44.6636   -8.2020   36.1427 H   0  0  0  0  0  0  0  0  0  0  0  0
   43.6646   -7.4637   35.0304 H   0  0  0  0  0  0  0  0  0  0  0  0
   42.1450   -3.2890   43.8817 H   0  0  0  0  0  0  0  0  0  0  0  0
   40.7617   -3.0706   44.8103 H   0  0  0  0  0  0  0  0  0  0  0  0
  1  2  1  0  0  0  0
  1 45  1  0  0  0  0
  1 46  1  0  0  0  0
  1 47  1  0  0  0  0
  2  3  2  0  0  0  0
  2  4  2  0  0  0  0
  2  5  1  0  0  0  0
  5  6  1  0  0  0  0
  5 44  1  0  0  0  0
  6  7  1  0  0  0  0
  6 48  1  0  0  0  0
  6 49  1  0  0  0  0
  7  8  1  0  0  0  0
  7 50  1  0  0  0  0
  7 51  1  0  0  0  0
  8  9  2  0  0  0  0
  8 12  1  0  0  0  0
  9 10  1  0  0  0  0
  9 44  1  0  0  0  0
 10 11  2  0  0  0  0
 10 25  1  0  0  0  0
 11 12  1  0  0  0  0
 12 13  1  0  0  0  0
 13 14  1  0  0  0  0
 13 52  1  0  0  0  0
 13 53  1  0  0  0  0
 14 15  1  0  0  0  0
 14 54  1  0  0  0  0
 14 55  1  0  0  0  0
 15 16  1  0  0  0  0
 15 56  1  0  0  0  0
 15 57  1  0  0  0  0
 16 17  1  0  0  0  0
 16 21  1  0  0  0  0
 16 58  1  6  0  0  0
 17 18  1  0  0  0  0
 17 59  1  0  0  0  0
 17 60  1  0  0  0  0
 18 19  1  0  0  0  0
 18 61  1  0  0  0  0
 18 62  1  0  0  0  0
 19 20  1  0  0  0  0
 19 22  1  6  0  0  0
 20 21  1  0  0  0  0
 20 63  1  0  0  0  0
 20 64  1  0  0  0  0
 21 65  1  0  0  0  0
 21 66  1  0  0  0  0
 22 23  1  0  0  0  0
 22 24  1  0  0  0  0
 22 67  1  0  0  0  0
 23 24  1  0  0  0  0
 23 68  1  0  0  0  0
 23 69  1  0  0  0  0
 24 70  1  0  0  0  0
 24 71  1  0  0  0  0
 25 26  2  0  0  0  0
 25 30  1  0  0  0  0
 26 27  1  0  0  0  0
 26 72  1  0  0  0  0
 27 28  2  0  0  0  0
 27 73  1  0  0  0  0
 28 29  1  0  0  0  0
 28 43  1  0  0  0  0
 29 30  2  0  0  0  0
 29 31  1  0  0  0  0
 30 74  1  0  0  0  0
 31 32  1  0  0  0  0
 31 75  1  0  0  0  0
 31 76  1  0  0  0  0
 32 33  1  0  0  0  0
 32 77  1  0  0  0  0
 32 78  1  0  0  0  0
 33 34  2  0  0  0  0
 33 38  1  0  0  0  0
 34 35  1  0  0  0  0
 34 79  1  0  0  0  0
 35 36  2  0  0  0  0
 35 80  1  0  0  0  0
 36 37  1  0  0  0  0
 36 42  1  0  0  0  0
 37 38  2  0  0  0  0
 37 39  1  0  0  0  0
 38 81  1  0  0  0  0
 39 40  1  0  0  0  0
 39 82  1  0  0  0  0
 39 83  1  0  0  0  0
 40 41  1  0  0  0  0
 40 84  1  0  0  0  0
 40 85  1  0  0  0  0
 41 42  1  0  0  0  0
 41 86  1  0  0  0  0
 41 87  1  0  0  0  0
 42 88  1  0  0  0  0
 42 89  1  0  0  0  0
 44 90  1  0  0  0  0
 44 91  1  0  0  0  0
M  CHG  2  16   1  40   1
M  END
