CatS_385:1_D
 OpenBabel12041818463D

 94100  0  0  1  0  0  0  0  0999 V2000
   38.9312  -13.5205   42.3932 C   0  0  0  0  0  0  0  0  0  0  0  0
   37.8846  -13.5593   43.8739 S   0  0  0  0  0  0  0  0  0  0  0  0
   36.7268  -12.7639   43.6295 O   0  0  0  0  0  0  0  0  0  0  0  0
   37.6663  -14.9251   44.2211 O   0  0  0  0  0  0  0  0  0  0  0  0
   38.6910  -12.8837   45.1170 N   0  0  0  0  0  0  0  0  0  0  0  0
   39.7967  -13.6361   45.7467 C   0  0  0  0  0  0  0  0  0  0  0  0
   40.2013  -13.0108   47.1023 C   0  0  0  0  0  0  0  0  0  0  0  0
   40.4189  -11.5113   46.9817 C   0  0  0  0  0  0  0  0  0  0  0  0
   39.9485  -10.8344   45.9324 C   0  0  0  0  0  0  0  0  0  0  0  0
   40.4055   -9.5133   46.1468 C   0  0  0  0  0  0  0  0  0  0  0  0
   41.0565   -9.4907   47.2912 N   0  0  0  0  0  0  0  0  0  0  0  0
   41.0910  -10.7202   47.8610 N   0  0  0  0  0  0  0  0  0  0  0  0
   41.8202  -11.0280   49.1031 C   0  0  0  0  0  0  0  0  0  0  0  0
   42.0045   -9.9240   50.1658 C   0  0  0  0  0  0  0  0  0  0  0  0
   40.7748   -9.7714   51.0897 C   0  0  0  0  0  0  0  0  0  0  0  0
   40.7844   -8.5213   51.9350 N   0  3  0  0  0  0  0  0  0  0  0  0
   39.5980   -8.4283   52.8601 C   0  0  0  0  0  0  0  0  0  0  0  0
   39.7346   -7.1615   53.7261 C   0  0  0  0  0  0  0  0  0  0  0  0
   39.8419   -5.9949   52.8883 O   0  0  0  0  0  0  0  0  0  0  0  0
   40.9995   -6.0376   52.0314 C   0  0  0  0  0  0  0  0  0  0  0  0
   40.9520   -7.2708   51.1082 C   0  0  0  0  0  0  0  0  0  0  0  0
   40.2588   -8.3474   45.2858 C   0  0  0  0  0  0  0  0  0  0  0  0
   39.2482   -8.3228   44.3332 C   0  0  0  0  0  0  0  0  0  0  0  0
   39.0843   -7.2455   43.4949 C   0  0  0  0  0  0  0  0  0  0  0  0
   39.9286   -6.1713   43.5916 C   0  0  0  0  0  0  0  0  0  0  0  0
   40.9534   -6.1675   44.5358 C   0  0  0  0  0  0  0  0  0  0  0  0
   41.1122   -7.2612   45.3847 C   0  0  0  0  0  0  0  0  0  0  0  0
   41.7854   -4.9898   44.5381 C   0  0  0  0  0  0  0  0  0  0  0  0
   42.5514   -4.0473   44.4026 C   0  0  0  0  0  0  0  0  0  0  0  0
   43.5047   -3.0131   44.0875 C   0  0  0  0  0  0  0  0  0  0  0  0
   43.7739   -2.1204   45.1181 C   0  0  0  0  0  0  0  0  0  0  0  0
   44.6392   -1.0798   44.9246 C   0  0  0  0  0  0  0  0  0  0  0  0
   45.2474   -0.9081   43.7015 C   0  0  0  0  0  0  0  0  0  0  0  0
   44.9929   -1.7890   42.6631 C   0  0  0  0  0  0  0  0  0  0  0  0
   44.1298   -2.8448   42.8532 C   0  0  0  0  0  0  0  0  0  0  0  0
   45.6754   -1.5730   41.3171 C   0  0  0  0  0  0  0  0  0  0  0  0
   46.0867   -0.1312   41.1255 N   0  3  0  0  0  0  0  0  0  0  0  0
   46.9450    0.4275   42.2335 C   0  0  2  0  0  0  0  0  0  0  0  0
   46.1573    0.3017   43.5601 C   0  0  0  0  0  0  0  0  0  0  0  0
   47.2783    1.8963   42.0058 C   0  0  0  0  0  0  0  0  0  0  0  0
   46.3932    2.6991   41.7382 O   0  0  0  0  0  0  0  0  0  0  0  0
   48.5818    2.2447   42.1051 N   0  0  0  0  0  0  0  0  0  0  0  0
   49.6895    1.3392   42.4906 C   0  0  0  0  0  0  0  0  0  0  0  0
   50.6420    2.0442   43.4778 C   0  0  0  0  0  0  0  0  0  0  0  0
   51.0485    3.3336   42.9809 O   0  0  0  0  0  0  0  0  0  0  0  0
   49.9305    4.2178   42.7871 C   0  0  0  0  0  0  0  0  0  0  0  0
   48.9691    3.6213   41.7453 C   0  0  0  0  0  0  0  0  0  0  0  0
   39.7160   -4.8178   42.5166 Cl  0  0  0  0  0  0  0  0  0  0  0  0
   39.1492  -11.5059   44.8223 C   0  0  0  0  0  0  0  0  0  0  0  0
   47.8034   -0.0848   42.2603 H   0  0  0  0  0  0  0  0  0  0  0  0
   39.8046  -13.0911   42.6230 H   0  0  0  0  0  0  0  0  0  0  0  0
   39.0896  -14.4524   42.0669 H   0  0  0  0  0  0  0  0  0  0  0  0
   38.4764  -12.9964   41.6731 H   0  0  0  0  0  0  0  0  0  0  0  0
   40.5869  -13.6308   45.1338 H   0  0  0  0  0  0  0  0  0  0  0  0
   39.4871  -14.5724   45.9123 H   0  0  0  0  0  0  0  0  0  0  0  0
   41.0468  -13.4398   47.4201 H   0  0  0  0  0  0  0  0  0  0  0  0
   39.4588  -13.1673   47.7536 H   0  0  0  0  0  0  0  0  0  0  0  0
   42.7338  -11.3357   48.8376 H   0  0  0  0  0  0  0  0  0  0  0  0
   41.2354  -11.6982   49.5601 H   0  0  0  0  0  0  0  0  0  0  0  0
   42.1673   -9.0542   49.7000 H   0  0  0  0  0  0  0  0  0  0  0  0
   42.7805  -10.1852   50.7398 H   0  0  0  0  0  0  0  0  0  0  0  0
   40.7387  -10.5639   51.6986 H   0  0  0  0  0  0  0  0  0  0  0  0
   39.9749   -9.7059   50.4930 H   0  0  0  0  0  0  0  0  0  0  0  0
   41.5218   -8.5693   52.4678 H   0  0  0  0  0  0  0  0  0  0  0  0
   39.5648   -9.2370   53.4474 H   0  0  0  0  0  0  0  0  0  0  0  0
   38.7551   -8.3803   52.3242 H   0  0  0  0  0  0  0  0  0  0  0  0
   40.5516   -7.2370   54.2978 H   0  0  0  0  0  0  0  0  0  0  0  0
   38.9235   -7.0728   54.3042 H   0  0  0  0  0  0  0  0  0  0  0  0
   41.8248   -6.0780   52.5945 H   0  0  0  0  0  0  0  0  0  0  0  0
   41.0084   -5.2142   51.4638 H   0  0  0  0  0  0  0  0  0  0  0  0
   40.1836   -7.1848   50.4741 H   0  0  0  0  0  0  0  0  0  0  0  0
   41.8064   -7.3285   50.5918 H   0  0  0  0  0  0  0  0  0  0  0  0
   38.6281   -9.1035   44.2557 H   0  0  0  0  0  0  0  0  0  0  0  0
   38.3502   -7.2462   42.8158 H   0  0  0  0  0  0  0  0  0  0  0  0
   41.8438   -7.2617   46.0665 H   0  0  0  0  0  0  0  0  0  0  0  0
   43.3317   -2.2401   46.0070 H   0  0  0  0  0  0  0  0  0  0  0  0
   44.8305   -0.4432   45.6717 H   0  0  0  0  0  0  0  0  0  0  0  0
   43.9521   -3.4884   42.1087 H   0  0  0  0  0  0  0  0  0  0  0  0
   45.0440   -1.8326   40.5863 H   0  0  0  0  0  0  0  0  0  0  0  0
   46.5002   -2.1378   41.2911 H   0  0  0  0  0  0  0  0  0  0  0  0
   45.3417    0.3875   41.0422 H   0  0  0  0  0  0  0  0  0  0  0  0
   46.5088   -0.0395   40.3250 H   0  0  0  0  0  0  0  0  0  0  0  0
   46.8208    0.2726   44.3077 H   0  0  0  0  0  0  0  0  0  0  0  0
   45.5464    1.0932   43.5774 H   0  0  0  0  0  0  0  0  0  0  0  0
   50.1982    1.0717   41.6722 H   0  0  0  0  0  0  0  0  0  0  0  0
   49.3065    0.5290   42.9340 H   0  0  0  0  0  0  0  0  0  0  0  0
   51.4523    1.4745   43.6144 H   0  0  0  0  0  0  0  0  0  0  0  0
   50.1580    2.1784   44.3425 H   0  0  0  0  0  0  0  0  0  0  0  0
   50.2598    5.1066   42.4683 H   0  0  0  0  0  0  0  0  0  0  0  0
   49.4460    4.3322   43.6544 H   0  0  0  0  0  0  0  0  0  0  0  0
   48.1479    4.1896   41.6922 H   0  0  0  0  0  0  0  0  0  0  0  0
   49.4360    3.5984   40.8613 H   0  0  0  0  0  0  0  0  0  0  0  0
   38.3433  -10.9441   44.6353 H   0  0  0  0  0  0  0  0  0  0  0  0
   39.7710  -11.5821   44.0429 H   0  0  0  0  0  0  0  0  0  0  0  0
  1  2  1  0  0  0  0
  1 51  1  0  0  0  0
  1 52  1  0  0  0  0
  1 53  1  0  0  0  0
  2  3  2  0  0  0  0
  2  4  2  0  0  0  0
  2  5  1  0  0  0  0
  5  6  1  0  0  0  0
  5 49  1  0  0  0  0
  6  7  1  0  0  0  0
  6 54  1  0  0  0  0
  6 55  1  0  0  0  0
  7  8  1  0  0  0  0
  7 56  1  0  0  0  0
  7 57  1  0  0  0  0
  8  9  2  0  0  0  0
  8 12  1  0  0  0  0
  9 10  1  0  0  0  0
  9 49  1  0  0  0  0
 10 11  2  0  0  0  0
 10 22  1  0  0  0  0
 11 12  1  0  0  0  0
 12 13  1  0  0  0  0
 13 14  1  0  0  0  0
 13 58  1  0  0  0  0
 13 59  1  0  0  0  0
 14 15  1  0  0  0  0
 14 60  1  0  0  0  0
 14 61  1  0  0  0  0
 15 16  1  0  0  0  0
 15 62  1  0  0  0  0
 15 63  1  0  0  0  0
 16 17  1  0  0  0  0
 16 21  1  0  0  0  0
 16 64  1  0  0  0  0
 17 18  1  0  0  0  0
 17 65  1  0  0  0  0
 17 66  1  0  0  0  0
 18 19  1  0  0  0  0
 18 67  1  0  0  0  0
 18 68  1  0  0  0  0
 19 20  1  0  0  0  0
 20 21  1  0  0  0  0
 20 69  1  0  0  0  0
 20 70  1  0  0  0  0
 21 71  1  0  0  0  0
 21 72  1  0  0  0  0
 22 23  2  0  0  0  0
 22 27  1  0  0  0  0
 23 24  1  0  0  0  0
 23 73  1  0  0  0  0
 24 25  2  0  0  0  0
 24 74  1  0  0  0  0
 25 26  1  0  0  0  0
 25 48  1  0  0  0  0
 26 27  2  0  0  0  0
 26 28  1  0  0  0  0
 27 75  1  0  0  0  0
 28 29  3  0  0  0  0
 29 30  1  0  0  0  0
 30 31  2  0  0  0  0
 30 35  1  0  0  0  0
 31 32  1  0  0  0  0
 31 76  1  0  0  0  0
 32 33  2  0  0  0  0
 32 77  1  0  0  0  0
 33 34  1  0  0  0  0
 33 39  1  0  0  0  0
 34 35  2  0  0  0  0
 34 36  1  0  0  0  0
 35 78  1  0  0  0  0
 36 37  1  0  0  0  0
 36 79  1  0  0  0  0
 36 80  1  0  0  0  0
 37 38  1  0  0  0  0
 37 81  1  0  0  0  0
 37 82  1  0  0  0  0
 38 39  1  0  0  0  0
 38 40  1  0  0  0  0
 38 50  1  1  0  0  0
 39 83  1  0  0  0  0
 39 84  1  0  0  0  0
 40 41  2  0  0  0  0
 40 42  1  0  0  0  0
 42 43  1  0  0  0  0
 42 47  1  0  0  0  0
 43 44  1  0  0  0  0
 43 85  1  0  0  0  0
 43 86  1  0  0  0  0
 44 45  1  0  0  0  0
 44 87  1  0  0  0  0
 44 88  1  0  0  0  0
 45 46  1  0  0  0  0
 46 47  1  0  0  0  0
 46 89  1  0  0  0  0
 46 90  1  0  0  0  0
 47 91  1  0  0  0  0
 47 92  1  0  0  0  0
 49 93  1  0  0  0  0
 49 94  1  0  0  0  0
M  CHG  2  16   1  37   1
M  END
