CatS_41:1_D
 OpenBabel12041818463D

 88 93  0  0  0  0  0  0  0  0999 V2000
   42.9046   -7.3095   49.1090 C   0  0  0  0  0  0  0  0  0  0  0  0
   43.3280   -8.1454   47.5544 S   0  0  0  0  0  0  0  0  0  0  0  0
   44.6709   -7.8092   47.2095 O   0  0  0  0  0  0  0  0  0  0  0  0
   43.0118   -9.5291   47.6978 O   0  0  0  0  0  0  0  0  0  0  0  0
   42.3622   -7.5749   46.3764 N   0  0  0  0  0  0  0  0  0  0  0  0
   40.9122   -7.8450   46.4765 C   0  0  0  0  0  0  0  0  0  0  0  0
   40.1643   -7.5700   45.1497 C   0  0  0  0  0  0  0  0  0  0  0  0
   40.6268   -6.2843   44.4860 C   0  0  0  0  0  0  0  0  0  0  0  0
   41.7076   -5.6327   44.9204 C   0  0  0  0  0  0  0  0  0  0  0  0
   41.7614   -4.4879   44.0941 C   0  0  0  0  0  0  0  0  0  0  0  0
   40.7623   -4.5482   43.2402 N   0  0  0  0  0  0  0  0  0  0  0  0
   40.0319   -5.6718   43.4271 N   0  0  0  0  0  0  0  0  0  0  0  0
   38.9734   -6.1163   42.5072 C   0  0  0  0  0  0  0  0  0  0  0  0
   39.3043   -7.0953   41.3606 C   0  0  0  0  0  0  0  0  0  0  0  0
   39.4044   -6.3964   39.9825 C   0  0  0  0  0  0  0  0  0  0  0  0
   38.0928   -6.3173   39.2437 N   0  3  0  0  0  0  0  0  0  0  0  0
   37.4358   -7.6701   39.1251 C   0  0  0  0  0  0  0  0  0  0  0  0
   36.1083   -7.5429   38.3538 C   0  0  0  0  0  0  0  0  0  0  0  0
   35.2518   -6.5719   38.9841 O   0  0  0  0  0  0  0  0  0  0  0  0
   35.8432   -5.2591   39.0152 C   0  0  0  0  0  0  0  0  0  0  0  0
   37.1587   -5.2804   39.8168 C   0  0  0  0  0  0  0  0  0  0  0  0
   42.7157   -3.3937   44.1155 C   0  0  0  0  0  0  0  0  0  0  0  0
   42.5286   -2.3403   44.9984 C   0  0  0  0  0  0  0  0  0  0  0  0
   43.4230   -1.2946   45.0421 C   0  0  0  0  0  0  0  0  0  0  0  0
   44.5072   -1.2705   44.1981 C   0  0  0  0  0  0  0  0  0  0  0  0
   44.7067   -2.3179   43.2990 C   0  0  0  0  0  0  0  0  0  0  0  0
   43.8120   -3.3841   43.2769 C   0  0  0  0  0  0  0  0  0  0  0  0
   45.8134   -2.2926   42.3752 C   0  0  0  0  0  0  0  0  0  0  0  0
   46.7581   -2.2497   41.6018 C   0  0  0  0  0  0  0  0  0  0  0  0
   47.8785   -2.1875   40.6975 C   0  0  0  0  0  0  0  0  0  0  0  0
   49.1618   -1.9880   41.1940 C   0  0  0  0  0  0  0  0  0  0  0  0
   50.2270   -1.9244   40.3327 C   0  0  0  0  0  0  0  0  0  0  0  0
   50.0388   -2.0640   38.9720 C   0  0  0  0  0  0  0  0  0  0  0  0
   48.7655   -2.2635   38.4765 C   0  0  0  0  0  0  0  0  0  0  0  0
   47.6892   -2.3203   39.3256 C   0  0  0  0  0  0  0  0  0  0  0  0
   51.2485   -2.0178   38.0484 C   0  0  0  0  0  0  0  0  0  0  0  0
   50.9433   -2.2495   36.5876 N   0  3  0  0  0  0  0  0  0  0  0  0
   52.1344   -2.3534   35.6637 C   0  0  0  0  0  0  0  0  0  0  0  0
   53.1805   -3.3608   36.1632 C   0  0  0  0  0  0  0  0  0  0  0  0
   54.4560   -3.0029   35.3830 C   0  0  0  0  0  0  0  0  0  0  0  0
   54.3068   -1.5212   34.9825 C   0  0  0  0  0  0  0  0  0  0  0  0
   52.9539   -1.0588   35.5500 C   0  0  0  0  0  0  0  0  0  0  0  0
   45.6161    0.0720   44.2623 Cl  0  0  0  0  0  0  0  0  0  0  0  0
   42.5645   -6.1386   46.0742 C   0  0  0  0  0  0  0  0  0  0  0  0
   42.1615   -6.6624   48.9388 H   0  0  0  0  0  0  0  0  0  0  0  0
   42.6146   -7.9845   49.7874 H   0  0  0  0  0  0  0  0  0  0  0  0
   43.7047   -6.8211   49.4573 H   0  0  0  0  0  0  0  0  0  0  0  0
   40.5250   -7.2636   47.1921 H   0  0  0  0  0  0  0  0  0  0  0  0
   40.7984   -8.8149   46.6922 H   0  0  0  0  0  0  0  0  0  0  0  0
   39.1845   -7.5035   45.3385 H   0  0  0  0  0  0  0  0  0  0  0  0
   40.3615   -8.3249   44.5243 H   0  0  0  0  0  0  0  0  0  0  0  0
   38.5922   -5.2935   42.0857 H   0  0  0  0  0  0  0  0  0  0  0  0
   38.3694   -6.6528   43.0965 H   0  0  0  0  0  0  0  0  0  0  0  0
   38.5879   -7.7916   41.3169 H   0  0  0  0  0  0  0  0  0  0  0  0
   40.1985   -7.4973   41.5577 H   0  0  0  0  0  0  0  0  0  0  0  0
   40.0571   -6.9016   39.4179 H   0  0  0  0  0  0  0  0  0  0  0  0
   39.6978   -5.4559   40.1538 H   0  0  0  0  0  0  0  0  0  0  0  0
   38.2852   -6.0583   38.3915 H   0  0  0  0  0  0  0  0  0  0  0  0
   37.2576   -8.0350   40.0390 H   0  0  0  0  0  0  0  0  0  0  0  0
   38.0449   -8.2893   38.6296 H   0  0  0  0  0  0  0  0  0  0  0  0
   35.6483   -8.4308   38.3382 H   0  0  0  0  0  0  0  0  0  0  0  0
   36.3036   -7.2433   37.4199 H   0  0  0  0  0  0  0  0  0  0  0  0
   35.2047   -4.6187   39.4419 H   0  0  0  0  0  0  0  0  0  0  0  0
   36.0408   -4.9707   38.0782 H   0  0  0  0  0  0  0  0  0  0  0  0
   37.5921   -4.3804   39.7716 H   0  0  0  0  0  0  0  0  0  0  0  0
   36.9584   -5.5088   40.7695 H   0  0  0  0  0  0  0  0  0  0  0  0
   41.7366   -2.3405   45.6089 H   0  0  0  0  0  0  0  0  0  0  0  0
   43.2827   -0.5477   45.6922 H   0  0  0  0  0  0  0  0  0  0  0  0
   43.9645   -4.1478   42.6495 H   0  0  0  0  0  0  0  0  0  0  0  0
   49.3079   -1.8909   42.1783 H   0  0  0  0  0  0  0  0  0  0  0  0
   51.1479   -1.7758   40.6932 H   0  0  0  0  0  0  0  0  0  0  0  0
   48.6267   -2.3672   37.4916 H   0  0  0  0  0  0  0  0  0  0  0  0
   46.7692   -2.4573   38.9585 H   0  0  0  0  0  0  0  0  0  0  0  0
   51.8963   -2.7184   38.3477 H   0  0  0  0  0  0  0  0  0  0  0  0
   51.6146   -1.0895   38.1129 H   0  0  0  0  0  0  0  0  0  0  0  0
   50.4295   -1.5523   36.3059 H   0  0  0  0  0  0  0  0  0  0  0  0
   50.3889   -2.9651   36.4919 H   0  0  0  0  0  0  0  0  0  0  0  0
   51.7062   -2.6101   34.7972 H   0  0  0  0  0  0  0  0  0  0  0  0
   52.8937   -4.2985   35.9672 H   0  0  0  0  0  0  0  0  0  0  0  0
   53.3139   -3.3136   37.1532 H   0  0  0  0  0  0  0  0  0  0  0  0
   54.5409   -3.5787   34.5698 H   0  0  0  0  0  0  0  0  0  0  0  0
   55.2768   -3.1516   35.9346 H   0  0  0  0  0  0  0  0  0  0  0  0
   54.3190   -1.4264   33.9871 H   0  0  0  0  0  0  0  0  0  0  0  0
   55.0595   -0.9689   35.3409 H   0  0  0  0  0  0  0  0  0  0  0  0
   53.0695   -0.6298   36.4459 H   0  0  0  0  0  0  0  0  0  0  0  0
   52.5106   -0.3729   34.9730 H   0  0  0  0  0  0  0  0  0  0  0  0
   43.5268   -5.9949   45.8435 H   0  0  0  0  0  0  0  0  0  0  0  0
   42.2910   -5.6260   46.8881 H   0  0  0  0  0  0  0  0  0  0  0  0
  1  2  1  0  0  0  0
  1 45  1  0  0  0  0
  1 46  1  0  0  0  0
  1 47  1  0  0  0  0
  2  3  2  0  0  0  0
  2  4  2  0  0  0  0
  2  5  1  0  0  0  0
  5  6  1  0  0  0  0
  5 44  1  0  0  0  0
  6  7  1  0  0  0  0
  6 48  1  0  0  0  0
  6 49  1  0  0  0  0
  7  8  1  0  0  0  0
  7 50  1  0  0  0  0
  7 51  1  0  0  0  0
  8  9  2  0  0  0  0
  8 12  1  0  0  0  0
  9 10  1  0  0  0  0
  9 44  1  0  0  0  0
 10 11  2  0  0  0  0
 10 22  1  0  0  0  0
 11 12  1  0  0  0  0
 12 13  1  0  0  0  0
 13 14  1  0  0  0  0
 13 52  1  0  0  0  0
 13 53  1  0  0  0  0
 14 15  1  0  0  0  0
 14 54  1  0  0  0  0
 14 55  1  0  0  0  0
 15 16  1  0  0  0  0
 15 56  1  0  0  0  0
 15 57  1  0  0  0  0
 16 17  1  0  0  0  0
 16 21  1  0  0  0  0
 16 58  1  0  0  0  0
 17 18  1  0  0  0  0
 17 59  1  0  0  0  0
 17 60  1  0  0  0  0
 18 19  1  0  0  0  0
 18 61  1  0  0  0  0
 18 62  1  0  0  0  0
 19 20  1  0  0  0  0
 20 21  1  0  0  0  0
 20 63  1  0  0  0  0
 20 64  1  0  0  0  0
 21 65  1  0  0  0  0
 21 66  1  0  0  0  0
 22 23  2  0  0  0  0
 22 27  1  0  0  0  0
 23 24  1  0  0  0  0
 23 67  1  0  0  0  0
 24 25  2  0  0  0  0
 24 68  1  0  0  0  0
 25 26  1  0  0  0  0
 25 43  1  0  0  0  0
 26 27  2  0  0  0  0
 26 28  1  0  0  0  0
 27 69  1  0  0  0  0
 28 29  3  0  0  0  0
 29 30  1  0  0  0  0
 30 31  2  0  0  0  0
 30 35  1  0  0  0  0
 31 32  1  0  0  0  0
 31 70  1  0  0  0  0
 32 33  2  0  0  0  0
 32 71  1  0  0  0  0
 33 34  1  0  0  0  0
 33 36  1  0  0  0  0
 34 35  2  0  0  0  0
 34 72  1  0  0  0  0
 35 73  1  0  0  0  0
 36 37  1  0  0  0  0
 36 74  1  0  0  0  0
 36 75  1  0  0  0  0
 37 38  1  0  0  0  0
 37 76  1  0  0  0  0
 37 77  1  0  0  0  0
 38 39  1  0  0  0  0
 38 42  1  0  0  0  0
 38 78  1  0  0  0  0
 39 40  1  0  0  0  0
 39 79  1  0  0  0  0
 39 80  1  0  0  0  0
 40 41  1  0  0  0  0
 40 81  1  0  0  0  0
 40 82  1  0  0  0  0
 41 42  1  0  0  0  0
 41 83  1  0  0  0  0
 41 84  1  0  0  0  0
 42 85  1  0  0  0  0
 42 86  1  0  0  0  0
 44 87  1  0  0  0  0
 44 88  1  0  0  0  0
M  CHG  2  16   1  37   1
M  END
