CatS_28:1_D
 OpenBabel12041818463D

 96100  0  0  0  0  0  0  0  0999 V2000
   34.5944  -14.2450   45.4912 C   0  0  0  0  0  0  0  0  0  0  0  0
   36.0818  -14.3201   45.1148 C   0  0  0  0  0  0  0  0  0  0  0  0
   36.4473  -13.2065   44.2801 O   0  0  0  0  0  0  0  0  0  0  0  0
   37.7004  -13.2235   43.7512 C   0  0  0  0  0  0  0  0  0  0  0  0
   37.8274  -13.1870   42.5301 O   0  0  0  0  0  0  0  0  0  0  0  0
   38.7601  -13.2846   44.5894 N   0  0  0  0  0  0  0  0  0  0  0  0
   39.1032  -12.1876   45.5128 C   0  0  1  0  0  0  0  0  0  0  0  0
   40.6197  -11.9147   45.4872 C   0  0  0  0  0  0  0  0  0  0  0  0
   40.9587  -10.7597   46.4510 C   0  0  0  0  0  0  0  0  0  0  0  0
   40.1938   -9.5070   46.0958 N   0  3  2  0  0  0  0  0  0  0  0  0
   38.7037   -9.7454   46.0456 C   0  0  0  0  0  0  0  0  0  0  0  0
   38.3564  -10.9061   45.0906 C   0  0  0  0  0  0  0  0  0  0  0  0
   40.7248   -8.8635   44.8399 C   0  0  0  0  0  0  0  0  0  0  0  0
   40.4045   -7.3584   44.7276 C   0  0  0  0  0  0  0  0  0  0  0  0
   39.1163   -7.1905   43.9032 C   0  0  0  0  0  0  0  0  0  0  0  0
   39.3073   -7.0043   42.4581 N   0  0  0  0  0  0  0  0  0  0  0  0
   38.6869   -6.1599   41.5957 C   0  0  0  0  0  0  0  0  0  0  0  0
   39.0627   -6.3485   40.3305 C   0  0  0  0  0  0  0  0  0  0  0  0
   40.0284   -7.3763   40.4171 C   0  0  0  0  0  0  0  0  0  0  0  0
   40.1301   -7.7453   41.6774 N   0  0  0  0  0  0  0  0  0  0  0  0
   40.8094   -7.9605   39.3407 C   0  0  0  0  0  0  0  0  0  0  0  0
   41.2050   -7.1998   38.2553 C   0  0  0  0  0  0  0  0  0  0  0  0
   41.9389   -7.7592   37.2373 C   0  0  0  0  0  0  0  0  0  0  0  0
   42.3000   -9.0906   37.2570 C   0  0  0  0  0  0  0  0  0  0  0  0
   41.9086   -9.8504   38.3529 C   0  0  0  0  0  0  0  0  0  0  0  0
   41.1788   -9.2916   39.3772 C   0  0  0  0  0  0  0  0  0  0  0  0
   42.2980  -11.5992   38.5038 S   0  0  0  0  0  0  0  0  0  0  0  0
   41.0713  -12.5411   37.5595 C   0  0  0  0  0  0  0  0  0  0  0  0
   40.0865  -11.5739   36.8649 C   0  0  0  0  0  0  0  0  0  0  0  0
   39.5466  -12.0782   35.5498 N   0  3  0  0  0  0  0  0  0  0  0  0
   38.1188  -11.6442   35.3240 C   0  0  0  0  0  0  0  0  0  0  0  0
   37.6304  -12.0654   33.9227 C   0  0  0  0  0  0  0  0  0  0  0  0
   37.7839  -13.5882   33.7457 C   0  0  0  0  0  0  0  0  0  0  0  0
   39.2551  -13.9951   33.9535 C   0  0  0  0  0  0  0  0  0  0  0  0
   39.7204  -13.5651   35.3591 C   0  0  0  0  0  0  0  0  0  0  0  0
   43.1101   -9.5546   36.0467 C   0  0  0  0  0  0  0  0  0  0  0  0
   42.8194  -10.8655   35.6783 F   0  0  0  0  0  0  0  0  0  0  0  0
   44.4822   -9.5107   36.2628 F   0  0  0  0  0  0  0  0  0  0  0  0
   42.8296   -8.7605   34.9413 F   0  0  0  0  0  0  0  0  0  0  0  0
   38.4822   -5.5478   39.1737 C   0  0  0  0  0  0  0  0  0  0  0  0
   37.2121   -4.8671   39.5138 N   0  0  0  0  0  0  0  0  0  0  0  0
   37.3846   -4.1388   40.7899 C   0  0  0  0  0  0  0  0  0  0  0  0
   37.6553   -5.1080   41.9671 C   0  0  0  0  0  0  0  0  0  0  0  0
   35.8899   -5.7827   39.2573 S   0  0  0  0  0  0  0  0  0  0  0  0
   35.9631   -6.1954   37.8957 O   0  0  0  0  0  0  0  0  0  0  0  0
   34.7374   -5.0272   39.6196 O   0  0  0  0  0  0  0  0  0  0  0  0
   35.9635   -7.2630   40.3044 C   0  0  0  0  0  0  0  0  0  0  0  0
   34.1011  -13.7544   44.7729 H   0  0  0  0  0  0  0  0  0  0  0  0
   34.2225  -15.1687   45.5845 H   0  0  0  0  0  0  0  0  0  0  0  0
   34.4912  -13.7633   46.3614 H   0  0  0  0  0  0  0  0  0  0  0  0
   36.2558  -15.1737   44.6237 H   0  0  0  0  0  0  0  0  0  0  0  0
   36.6288  -14.2889   45.9513 H   0  0  0  0  0  0  0  0  0  0  0  0
   39.2562  -14.0120   44.5875 H   0  0  0  0  0  0  0  0  0  0  0  0
   38.8336  -12.4542   46.4382 H   0  0  0  0  0  0  0  0  0  0  0  0
   40.8986  -11.6686   44.5589 H   0  0  0  0  0  0  0  0  0  0  0  0
   41.1082  -12.7381   45.7757 H   0  0  0  0  0  0  0  0  0  0  0  0
   41.9395  -10.5704   46.4027 H   0  0  0  0  0  0  0  0  0  0  0  0
   40.6996  -11.0348   47.3768 H   0  0  0  0  0  0  0  0  0  0  0  0
   40.3442   -8.9170   46.7742 H   0  0  0  0  0  0  0  0  0  0  0  0
   38.2491   -8.9126   45.7299 H   0  0  0  0  0  0  0  0  0  0  0  0
   38.3910   -9.9882   46.9639 H   0  0  0  0  0  0  0  0  0  0  0  0
   37.3708  -11.0734   45.1153 H   0  0  0  0  0  0  0  0  0  0  0  0
   38.6355  -10.6574   44.1631 H   0  0  0  0  0  0  0  0  0  0  0  0
   40.3273   -9.3327   44.0513 H   0  0  0  0  0  0  0  0  0  0  0  0
   41.7210   -8.9463   44.8695 H   0  0  0  0  0  0  0  0  0  0  0  0
   41.1605   -6.8844   44.2760 H   0  0  0  0  0  0  0  0  0  0  0  0
   40.2786   -6.9672   45.6391 H   0  0  0  0  0  0  0  0  0  0  0  0
   38.6251   -6.3943   44.2563 H   0  0  0  0  0  0  0  0  0  0  0  0
   38.6140   -8.0494   44.0030 H   0  0  0  0  0  0  0  0  0  0  0  0
   40.9544   -6.2327   38.2111 H   0  0  0  0  0  0  0  0  0  0  0  0
   42.2174   -7.1886   36.4648 H   0  0  0  0  0  0  0  0  0  0  0  0
   40.9124   -9.8563   40.1584 H   0  0  0  0  0  0  0  0  0  0  0  0
   40.5672  -13.1446   38.1772 H   0  0  0  0  0  0  0  0  0  0  0  0
   41.5394  -13.0873   36.8649 H   0  0  0  0  0  0  0  0  0  0  0  0
   40.5588  -10.7078   36.7012 H   0  0  0  0  0  0  0  0  0  0  0  0
   39.3018  -11.4757   37.4769 H   0  0  0  0  0  0  0  0  0  0  0  0
   40.0382  -11.6715   34.8993 H   0  0  0  0  0  0  0  0  0  0  0  0
   38.0602  -10.6495   35.4084 H   0  0  0  0  0  0  0  0  0  0  0  0
   37.5389  -12.0852   36.0089 H   0  0  0  0  0  0  0  0  0  0  0  0
   38.1703  -11.5926   33.2264 H   0  0  0  0  0  0  0  0  0  0  0  0
   36.6657  -11.8209   33.8248 H   0  0  0  0  0  0  0  0  0  0  0  0
   37.4926  -13.8475   32.8248 H   0  0  0  0  0  0  0  0  0  0  0  0
   37.2156  -14.0570   34.4219 H   0  0  0  0  0  0  0  0  0  0  0  0
   39.8250  -13.5513   33.2619 H   0  0  0  0  0  0  0  0  0  0  0  0
   39.3390  -14.9879   33.8677 H   0  0  0  0  0  0  0  0  0  0  0  0
   39.1821  -14.0506   36.0481 H   0  0  0  0  0  0  0  0  0  0  0  0
   40.6898  -13.7896   35.4570 H   0  0  0  0  0  0  0  0  0  0  0  0
   38.3175   -6.1684   38.4070 H   0  0  0  0  0  0  0  0  0  0  0  0
   39.1460   -4.8365   38.9426 H   0  0  0  0  0  0  0  0  0  0  0  0
   36.5542   -3.6155   40.9814 H   0  0  0  0  0  0  0  0  0  0  0  0
   38.1735   -3.5311   40.6989 H   0  0  0  0  0  0  0  0  0  0  0  0
   37.9898   -4.5854   42.7514 H   0  0  0  0  0  0  0  0  0  0  0  0
   36.7994   -5.5736   42.1921 H   0  0  0  0  0  0  0  0  0  0  0  0
   35.1828   -7.2590   40.9292 H   0  0  0  0  0  0  0  0  0  0  0  0
   35.9331   -8.0830   39.7328 H   0  0  0  0  0  0  0  0  0  0  0  0
   36.8153   -7.2629   40.8282 H   0  0  0  0  0  0  0  0  0  0  0  0
  1  2  1  0  0  0  0
  1 48  1  0  0  0  0
  1 49  1  0  0  0  0
  1 50  1  0  0  0  0
  2  3  1  0  0  0  0
  2 51  1  0  0  0  0
  2 52  1  0  0  0  0
  3  4  1  0  0  0  0
  4  5  2  0  0  0  0
  4  6  1  0  0  0  0
  6  7  1  0  0  0  0
  6 53  1  0  0  0  0
  7  8  1  0  0  0  0
  7 12  1  0  0  0  0
  7 54  1  1  0  0  0
  8  9  1  0  0  0  0
  8 55  1  0  0  0  0
  8 56  1  0  0  0  0
  9 10  1  0  0  0  0
  9 57  1  0  0  0  0
  9 58  1  0  0  0  0
 10 11  1  0  0  0  0
 10 13  1  0  0  0  0
 10 59  1  1  0  0  0
 11 12  1  0  0  0  0
 11 60  1  0  0  0  0
 11 61  1  0  0  0  0
 12 62  1  0  0  0  0
 12 63  1  0  0  0  0
 13 14  1  0  0  0  0
 13 64  1  0  0  0  0
 13 65  1  0  0  0  0
 14 15  1  0  0  0  0
 14 66  1  0  0  0  0
 14 67  1  0  0  0  0
 15 16  1  0  0  0  0
 15 68  1  0  0  0  0
 15 69  1  0  0  0  0
 16 17  1  0  0  0  0
 16 20  1  0  0  0  0
 17 18  2  0  0  0  0
 17 43  1  0  0  0  0
 18 19  1  0  0  0  0
 18 40  1  0  0  0  0
 19 20  2  0  0  0  0
 19 21  1  0  0  0  0
 21 22  2  0  0  0  0
 21 26  1  0  0  0  0
 22 23  1  0  0  0  0
 22 70  1  0  0  0  0
 23 24  2  0  0  0  0
 23 71  1  0  0  0  0
 24 25  1  0  0  0  0
 24 36  1  0  0  0  0
 25 26  2  0  0  0  0
 25 27  1  0  0  0  0
 26 72  1  0  0  0  0
 27 28  1  0  0  0  0
 28 29  1  0  0  0  0
 28 73  1  0  0  0  0
 28 74  1  0  0  0  0
 29 30  1  0  0  0  0
 29 75  1  0  0  0  0
 29 76  1  0  0  0  0
 30 31  1  0  0  0  0
 30 35  1  0  0  0  0
 30 77  1  0  0  0  0
 31 32  1  0  0  0  0
 31 78  1  0  0  0  0
 31 79  1  0  0  0  0
 32 33  1  0  0  0  0
 32 80  1  0  0  0  0
 32 81  1  0  0  0  0
 33 34  1  0  0  0  0
 33 82  1  0  0  0  0
 33 83  1  0  0  0  0
 34 35  1  0  0  0  0
 34 84  1  0  0  0  0
 34 85  1  0  0  0  0
 35 86  1  0  0  0  0
 35 87  1  0  0  0  0
 36 37  1  0  0  0  0
 36 38  1  0  0  0  0
 36 39  1  0  0  0  0
 40 41  1  0  0  0  0
 40 88  1  0  0  0  0
 40 89  1  0  0  0  0
 41 42  1  0  0  0  0
 41 44  1  0  0  0  0
 42 43  1  0  0  0  0
 42 90  1  0  0  0  0
 42 91  1  0  0  0  0
 43 92  1  0  0  0  0
 43 93  1  0  0  0  0
 44 45  2  0  0  0  0
 44 46  2  0  0  0  0
 44 47  1  0  0  0  0
 47 94  1  0  0  0  0
 47 95  1  0  0  0  0
 47 96  1  0  0  0  0
M  CHG  2  10   1  30   1
M  END
