CatS_68:1_D
 OpenBabel12041818463D

 93 98  0  0  0  0  0  0  0  0999 V2000
   38.1006   -5.5632   40.8612 C   0  0  0  0  0  0  0  0  0  0  0  0
   39.2277   -6.9861   40.9130 S   0  0  0  0  0  0  0  0  0  0  0  0
   38.4435   -8.1684   40.7630 O   0  0  0  0  0  0  0  0  0  0  0  0
   40.2842   -6.7631   39.9817 O   0  0  0  0  0  0  0  0  0  0  0  0
   39.9073   -7.0578   42.3910 N   0  0  0  0  0  0  0  0  0  0  0  0
   39.0793   -7.6130   43.4830 C   0  0  0  0  0  0  0  0  0  0  0  0
   39.9376   -8.0261   44.7004 C   0  0  0  0  0  0  0  0  0  0  0  0
   40.9735   -6.9669   45.0393 C   0  0  0  0  0  0  0  0  0  0  0  0
   41.2543   -5.9576   44.2084 C   0  0  0  0  0  0  0  0  0  0  0  0
   42.2494   -5.2227   44.8972 C   0  0  0  0  0  0  0  0  0  0  0  0
   42.4829   -5.8292   46.0412 N   0  0  0  0  0  0  0  0  0  0  0  0
   41.7207   -6.9332   46.1744 N   0  0  0  0  0  0  0  0  0  0  0  0
   41.8945   -7.8933   47.2716 C   0  0  0  0  0  0  0  0  0  0  0  0
   42.1680   -9.3910   47.0396 C   0  0  0  0  0  0  0  0  0  0  0  0
   40.8339  -10.1488   47.2140 C   0  0  0  0  0  0  0  0  0  0  0  0
   40.5107  -11.1475   46.1311 N   0  3  1  0  0  0  0  0  0  0  0  0
   40.8486  -12.5674   46.5231 C   0  0  0  0  0  0  0  0  0  0  0  0
   40.5000  -13.5616   45.3972 C   0  0  0  0  0  0  0  0  0  0  0  0
   39.0078  -13.4314   45.0360 C   0  0  1  0  0  0  0  0  0  0  0  0
   38.7338  -11.9965   44.5491 C   0  0  0  0  0  0  0  0  0  0  0  0
   39.0782  -11.0028   45.6745 C   0  0  0  0  0  0  0  0  0  0  0  0
   38.6263  -14.4450   43.9445 C   0  0  0  0  0  0  0  0  0  0  0  0
   39.4926  -15.5318   43.9561 F   0  0  0  0  0  0  0  0  0  0  0  0
   37.3369  -14.9250   44.1455 F   0  0  0  0  0  0  0  0  0  0  0  0
   38.6795  -13.8606   42.6849 F   0  0  0  0  0  0  0  0  0  0  0  0
   42.9210   -3.9801   44.5498 C   0  0  0  0  0  0  0  0  0  0  0  0
   42.6692   -2.9025   45.3871 C   0  0  0  0  0  0  0  0  0  0  0  0
   43.2861   -1.6944   45.1753 C   0  0  0  0  0  0  0  0  0  0  0  0
   44.1557   -1.5393   44.1278 C   0  0  0  0  0  0  0  0  0  0  0  0
   44.4340   -2.6047   43.2722 C   0  0  0  0  0  0  0  0  0  0  0  0
   43.8098   -3.8354   43.4945 C   0  0  0  0  0  0  0  0  0  0  0  0
   45.3785   -2.2717   42.2303 C   0  0  0  0  0  0  0  0  0  0  0  0
   46.1819   -2.1966   41.3099 C   0  0  0  0  0  0  0  0  0  0  0  0
   47.1073   -2.3405   40.2123 C   0  0  0  0  0  0  0  0  0  0  0  0
   48.0743   -3.3163   40.4161 C   0  0  0  0  0  0  0  0  0  0  0  0
   49.0146   -3.5723   39.4592 C   0  0  0  0  0  0  0  0  0  0  0  0
   49.0220   -2.8683   38.2751 C   0  0  0  0  0  0  0  0  0  0  0  0
   48.0644   -1.8915   38.0592 C   0  0  0  0  0  0  0  0  0  0  0  0
   47.1099   -1.6227   39.0168 C   0  0  0  0  0  0  0  0  0  0  0  0
   50.1478   -3.3073   37.3492 C   0  0  0  0  0  0  0  0  0  0  0  0
   50.7288   -2.3293   36.3663 N   0  3  0  0  0  0  0  0  0  0  0  0
   52.2243   -2.2304   36.5190 C   0  0  0  0  0  0  0  0  0  0  0  0
   52.9158   -1.0379   35.8805 C   0  0  0  0  0  0  0  0  0  0  0  0
   53.0537    0.1948   36.4810 C   0  0  0  0  0  0  0  0  0  0  0  0
   53.6988    1.2163   35.8205 C   0  0  0  0  0  0  0  0  0  0  0  0
   54.2091    1.0100   34.5574 C   0  0  0  0  0  0  0  0  0  0  0  0
   54.0728   -0.2196   33.9546 C   0  0  0  0  0  0  0  0  0  0  0  0
   53.4278   -1.2373   34.6169 C   0  0  0  0  0  0  0  0  0  0  0  0
   55.0255    2.2967   33.7200 Cl  0  0  0  0  0  0  0  0  0  0  0  0
   44.9147    0.0117   43.8792 Cl  0  0  0  0  0  0  0  0  0  0  0  0
   40.5470   -5.8042   42.8636 C   0  0  0  0  0  0  0  0  0  0  0  0
   38.1171   -5.1022   41.7485 H   0  0  0  0  0  0  0  0  0  0  0  0
   38.3915   -4.9276   40.1461 H   0  0  0  0  0  0  0  0  0  0  0  0
   37.1723   -5.8761   40.6605 H   0  0  0  0  0  0  0  0  0  0  0  0
   38.5879   -8.4148   43.1430 H   0  0  0  0  0  0  0  0  0  0  0  0
   38.4409   -6.9032   43.7806 H   0  0  0  0  0  0  0  0  0  0  0  0
   40.4045   -8.8859   44.4934 H   0  0  0  0  0  0  0  0  0  0  0  0
   39.3315   -8.1328   45.4886 H   0  0  0  0  0  0  0  0  0  0  0  0
   41.0576   -7.8449   47.8167 H   0  0  0  0  0  0  0  0  0  0  0  0
   42.7628   -7.5916   47.6655 H   0  0  0  0  0  0  0  0  0  0  0  0
   42.8393   -9.7222   47.7026 H   0  0  0  0  0  0  0  0  0  0  0  0
   42.5348   -9.5401   46.1213 H   0  0  0  0  0  0  0  0  0  0  0  0
   40.0963   -9.4744   47.2452 H   0  0  0  0  0  0  0  0  0  0  0  0
   40.9267  -10.6789   48.0569 H   0  0  0  0  0  0  0  0  0  0  0  0
   41.0295  -10.9428   45.4100 H   0  0  0  0  0  0  0  0  0  0  0  0
   40.3342  -12.8103   47.3456 H   0  0  0  0  0  0  0  0  0  0  0  0
   41.8325  -12.6203   46.6936 H   0  0  0  0  0  0  0  0  0  0  0  0
   40.6907  -14.4942   45.7039 H   0  0  0  0  0  0  0  0  0  0  0  0
   41.0547  -13.3573   44.5906 H   0  0  0  0  0  0  0  0  0  0  0  0
   38.4531  -13.6238   45.8455 H   0  0  0  0  0  0  0  0  0  0  0  0
   37.7691  -11.9043   44.3023 H   0  0  0  0  0  0  0  0  0  0  0  0
   39.2983  -11.8013   43.7471 H   0  0  0  0  0  0  0  0  0  0  0  0
   38.9356  -10.0707   45.3416 H   0  0  0  0  0  0  0  0  0  0  0  0
   38.4825  -11.1984   46.4534 H   0  0  0  0  0  0  0  0  0  0  0  0
   42.0329   -3.0068   46.1515 H   0  0  0  0  0  0  0  0  0  0  0  0
   43.1002   -0.9255   45.7871 H   0  0  0  0  0  0  0  0  0  0  0  0
   44.0037   -4.6107   42.8934 H   0  0  0  0  0  0  0  0  0  0  0  0
   48.0822   -3.8358   41.2705 H   0  0  0  0  0  0  0  0  0  0  0  0
   49.7048   -4.2778   39.6198 H   0  0  0  0  0  0  0  0  0  0  0  0
   48.0654   -1.3770   37.2017 H   0  0  0  0  0  0  0  0  0  0  0  0
   46.4217   -0.9155   38.8546 H   0  0  0  0  0  0  0  0  0  0  0  0
   49.8040   -4.0835   36.8207 H   0  0  0  0  0  0  0  0  0  0  0  0
   50.9073   -3.4846   37.9750 H   0  0  0  0  0  0  0  0  0  0  0  0
   50.5178   -2.5756   35.5158 H   0  0  0  0  0  0  0  0  0  0  0  0
   50.3495   -1.5097   36.4779 H   0  0  0  0  0  0  0  0  0  0  0  0
   52.6228   -3.0581   36.1238 H   0  0  0  0  0  0  0  0  0  0  0  0
   52.3732   -2.1143   37.5010 H   0  0  0  0  0  0  0  0  0  0  0  0
   52.6846    0.3477   37.3977 H   0  0  0  0  0  0  0  0  0  0  0  0
   53.7972    2.1097   36.2585 H   0  0  0  0  0  0  0  0  0  0  0  0
   54.4417   -0.3724   33.0378 H   0  0  0  0  0  0  0  0  0  0  0  0
   53.3294   -2.1302   34.1776 H   0  0  0  0  0  0  0  0  0  0  0  0
   39.8424   -5.0999   42.9511 H   0  0  0  0  0  0  0  0  0  0  0  0
   41.2435   -5.5549   42.1906 H   0  0  0  0  0  0  0  0  0  0  0  0
  1  2  1  0  0  0  0
  1 52  1  0  0  0  0
  1 53  1  0  0  0  0
  1 54  1  0  0  0  0
  2  3  2  0  0  0  0
  2  4  2  0  0  0  0
  2  5  1  0  0  0  0
  5  6  1  0  0  0  0
  5 51  1  0  0  0  0
  6  7  1  0  0  0  0
  6 55  1  0  0  0  0
  6 56  1  0  0  0  0
  7  8  1  0  0  0  0
  7 57  1  0  0  0  0
  7 58  1  0  0  0  0
  8  9  2  0  0  0  0
  8 12  1  0  0  0  0
  9 10  1  0  0  0  0
  9 51  1  0  0  0  0
 10 11  2  0  0  0  0
 10 26  1  0  0  0  0
 11 12  1  0  0  0  0
 12 13  1  0  0  0  0
 13 14  1  0  0  0  0
 13 59  1  0  0  0  0
 13 60  1  0  0  0  0
 14 15  1  0  0  0  0
 14 61  1  0  0  0  0
 14 62  1  0  0  0  0
 15 16  1  0  0  0  0
 15 63  1  0  0  0  0
 15 64  1  0  0  0  0
 16 17  1  0  0  0  0
 16 21  1  0  0  0  0
 16 65  1  6  0  0  0
 17 18  1  0  0  0  0
 17 66  1  0  0  0  0
 17 67  1  0  0  0  0
 18 19  1  0  0  0  0
 18 68  1  0  0  0  0
 18 69  1  0  0  0  0
 19 20  1  0  0  0  0
 19 22  1  0  0  0  0
 19 70  1  1  0  0  0
 20 21  1  0  0  0  0
 20 71  1  0  0  0  0
 20 72  1  0  0  0  0
 21 73  1  0  0  0  0
 21 74  1  0  0  0  0
 22 23  1  0  0  0  0
 22 24  1  0  0  0  0
 22 25  1  0  0  0  0
 26 27  2  0  0  0  0
 26 31  1  0  0  0  0
 27 28  1  0  0  0  0
 27 75  1  0  0  0  0
 28 29  2  0  0  0  0
 28 76  1  0  0  0  0
 29 30  1  0  0  0  0
 29 50  1  0  0  0  0
 30 31  2  0  0  0  0
 30 32  1  0  0  0  0
 31 77  1  0  0  0  0
 32 33  3  0  0  0  0
 33 34  1  0  0  0  0
 34 35  2  0  0  0  0
 34 39  1  0  0  0  0
 35 36  1  0  0  0  0
 35 78  1  0  0  0  0
 36 37  2  0  0  0  0
 36 79  1  0  0  0  0
 37 38  1  0  0  0  0
 37 40  1  0  0  0  0
 38 39  2  0  0  0  0
 38 80  1  0  0  0  0
 39 81  1  0  0  0  0
 40 41  1  0  0  0  0
 40 82  1  0  0  0  0
 40 83  1  0  0  0  0
 41 42  1  0  0  0  0
 41 84  1  0  0  0  0
 41 85  1  0  0  0  0
 42 43  1  0  0  0  0
 42 86  1  0  0  0  0
 42 87  1  0  0  0  0
 43 44  2  0  0  0  0
 43 48  1  0  0  0  0
 44 45  1  0  0  0  0
 44 88  1  0  0  0  0
 45 46  2  0  0  0  0
 45 89  1  0  0  0  0
 46 47  1  0  0  0  0
 46 49  1  0  0  0  0
 47 48  2  0  0  0  0
 47 90  1  0  0  0  0
 48 91  1  0  0  0  0
 51 92  1  0  0  0  0
 51 93  1  0  0  0  0
M  CHG  2  16   1  41   1
M  END
