CatS_178:1_D
 OpenBabel12041818463D

 95100  0  0  1  0  0  0  0  0999 V2000
   38.9616   -9.6482   46.9886 C   0  0  0  0  0  0  0  0  0  0  0  0
   40.6380   -9.6825   46.2992 S   0  0  0  0  0  0  0  0  0  0  0  0
   41.5307  -10.0922   47.3325 O   0  0  0  0  0  0  0  0  0  0  0  0
   40.5814  -10.4638   45.1086 O   0  0  0  0  0  0  0  0  0  0  0  0
   41.0767   -8.1789   45.8492 N   0  0  0  0  0  0  0  0  0  0  0  0
   41.4124   -7.2348   46.9409 C   0  0  0  0  0  0  0  0  0  0  0  0
   42.2349   -6.0343   46.4169 C   0  0  0  0  0  0  0  0  0  0  0  0
   41.6041   -5.4572   45.1623 C   0  0  0  0  0  0  0  0  0  0  0  0
   40.6725   -6.1181   44.4748 C   0  0  0  0  0  0  0  0  0  0  0  0
   40.3325   -5.2243   43.4327 C   0  0  0  0  0  0  0  0  0  0  0  0
   41.0850   -4.1493   43.5440 N   0  0  0  0  0  0  0  0  0  0  0  0
   41.8941   -4.2468   44.6248 N   0  0  0  0  0  0  0  0  0  0  0  0
   42.7327   -3.1659   45.1575 C   0  0  0  0  0  0  0  0  0  0  0  0
   44.1107   -2.9311   44.5135 C   0  0  2  0  0  0  0  0  0  0  0  0
   43.9723   -2.2645   43.1245 C   0  0  0  0  0  0  0  0  0  0  0  0
   45.1995   -2.4031   42.2535 N   0  3  1  0  0  0  0  0  0  0  0  0
   44.9905   -1.9229   40.8392 C   0  0  0  0  0  0  0  0  0  0  0  0
   46.2282   -2.2495   39.9741 C   0  0  0  0  0  0  0  0  0  0  0  0
   47.5107   -1.6427   40.5863 C   0  0  1  0  0  0  0  0  0  0  0  0
   47.6765   -2.1344   42.0394 C   0  0  0  0  0  0  0  0  0  0  0  0
   46.4277   -1.7785   42.8686 C   0  0  0  0  0  0  0  0  0  0  0  0
   48.7448   -1.9600   39.7573 C   0  0  0  0  0  0  0  0  0  0  0  0
   48.5663   -2.6221   38.5650 C   0  0  0  0  0  0  0  0  0  0  0  0
   49.6594   -2.9230   37.7971 C   0  0  0  0  0  0  0  0  0  0  0  0
   50.8982   -2.5503   38.2456 C   0  0  0  0  0  0  0  0  0  0  0  0
   51.0045   -1.8910   39.4460 C   0  0  0  0  0  0  0  0  0  0  0  0
   49.9508   -1.5815   40.2270 N   0  0  0  0  0  0  0  0  0  0  0  0
   44.8018   -4.1805   44.3699 O   0  0  0  0  0  0  0  0  0  0  0  0
   39.3019   -5.3823   42.4206 C   0  0  0  0  0  0  0  0  0  0  0  0
   38.1609   -4.6010   42.4609 C   0  0  0  0  0  0  0  0  0  0  0  0
   37.1623   -4.7745   41.5314 C   0  0  0  0  0  0  0  0  0  0  0  0
   37.2600   -5.7305   40.5396 C   0  0  0  0  0  0  0  0  0  0  0  0
   38.4095   -6.5070   40.4973 C   0  0  0  0  0  0  0  0  0  0  0  0
   39.4159   -6.3266   41.4174 C   0  0  0  0  0  0  0  0  0  0  0  0
   38.6325   -7.8258   39.2939 S   0  0  0  0  0  0  0  0  0  0  0  0
   40.3936   -8.0327   38.9198 C   0  0  0  0  0  0  0  0  0  0  0  0
   40.5338   -8.7184   37.5423 C   0  0  0  0  0  0  0  0  0  0  0  0
   40.5740  -10.2248   37.6105 N   0  3  0  0  0  0  0  0  0  0  0  0
   41.9926  -10.7333   37.6699 C   0  0  0  0  0  0  0  0  0  0  0  0
   42.0634  -12.2529   37.9507 C   0  0  0  0  0  0  0  0  0  0  0  0
   40.8873  -13.0277   37.3127 C   0  0  0  0  0  0  0  0  0  0  0  0
   40.3162  -12.2710   36.1000 C   0  0  0  0  0  0  0  0  0  0  0  0
   39.7457  -10.9026   36.5356 C   0  0  0  0  0  0  0  0  0  0  0  0
   41.3131  -14.2923   36.9179 F   0  0  0  0  0  0  0  0  0  0  0  0
   39.8789  -13.2146   38.2531 F   0  0  0  0  0  0  0  0  0  0  0  0
   36.0824   -5.8659   39.5778 C   0  0  0  0  0  0  0  0  0  0  0  0
   36.4947   -5.7119   38.2589 F   0  0  0  0  0  0  0  0  0  0  0  0
   35.1223   -4.8934   39.8271 F   0  0  0  0  0  0  0  0  0  0  0  0
   35.4430   -7.0993   39.6581 F   0  0  0  0  0  0  0  0  0  0  0  0
   40.1773   -7.4978   44.8890 C   0  0  0  0  0  0  0  0  0  0  0  0
   44.6298   -2.3202   45.1111 H   0  0  0  0  0  0  0  0  0  0  0  0
   38.6184   -8.7093   46.9636 H   0  0  0  0  0  0  0  0  0  0  0  0
   38.3625  -10.2403   46.4495 H   0  0  0  0  0  0  0  0  0  0  0  0
   38.9792   -9.9763   47.9331 H   0  0  0  0  0  0  0  0  0  0  0  0
   41.9435   -7.7168   47.6377 H   0  0  0  0  0  0  0  0  0  0  0  0
   40.5590   -6.8850   47.3273 H   0  0  0  0  0  0  0  0  0  0  0  0
   43.1651   -6.3373   46.2098 H   0  0  0  0  0  0  0  0  0  0  0  0
   42.2522   -5.3250   47.1215 H   0  0  0  0  0  0  0  0  0  0  0  0
   42.8845   -3.3569   46.1272 H   0  0  0  0  0  0  0  0  0  0  0  0
   42.2202   -2.3316   44.9545 H   0  0  0  0  0  0  0  0  0  0  0  0
   43.7863   -1.2910   43.2581 H   0  0  0  0  0  0  0  0  0  0  0  0
   43.2272   -2.7338   42.6506 H   0  0  0  0  0  0  0  0  0  0  0  0
   45.3633   -3.2959   42.1817 H   0  0  0  0  0  0  0  0  0  0  0  0
   44.8394   -0.9344   40.8437 H   0  0  0  0  0  0  0  0  0  0  0  0
   44.1933   -2.3866   40.4528 H   0  0  0  0  0  0  0  0  0  0  0  0
   46.0940   -1.8772   39.0557 H   0  0  0  0  0  0  0  0  0  0  0  0
   46.3354   -3.2429   39.9357 H   0  0  0  0  0  0  0  0  0  0  0  0
   47.4141   -0.6474   40.5861 H   0  0  0  0  0  0  0  0  0  0  0  0
   48.4806   -1.7010   42.4463 H   0  0  0  0  0  0  0  0  0  0  0  0
   47.7915   -3.1277   42.0358 H   0  0  0  0  0  0  0  0  0  0  0  0
   46.5403   -2.1178   43.8025 H   0  0  0  0  0  0  0  0  0  0  0  0
   46.3174   -0.7847   42.8807 H   0  0  0  0  0  0  0  0  0  0  0  0
   47.6489   -2.8808   38.2624 H   0  0  0  0  0  0  0  0  0  0  0  0
   49.5551   -3.4049   36.9271 H   0  0  0  0  0  0  0  0  0  0  0  0
   51.7150   -2.7554   37.7063 H   0  0  0  0  0  0  0  0  0  0  0  0
   51.9165   -1.6252   39.7584 H   0  0  0  0  0  0  0  0  0  0  0  0
   45.4837   -4.1394   43.6313 H   0  0  0  0  0  0  0  0  0  0  0  0
   38.0615   -3.9046   43.1716 H   0  0  0  0  0  0  0  0  0  0  0  0
   36.3478   -4.1960   41.5746 H   0  0  0  0  0  0  0  0  0  0  0  0
   40.2422   -6.8869   41.3600 H   0  0  0  0  0  0  0  0  0  0  0  0
   40.8243   -8.5968   39.6242 H   0  0  0  0  0  0  0  0  0  0  0  0
   40.8435   -7.1397   38.9004 H   0  0  0  0  0  0  0  0  0  0  0  0
   41.3785   -8.3976   37.1138 H   0  0  0  0  0  0  0  0  0  0  0  0
   39.7211   -8.4749   37.0129 H   0  0  0  0  0  0  0  0  0  0  0  0
   40.2080  -10.4518   38.4141 H   0  0  0  0  0  0  0  0  0  0  0  0
   42.4794  -10.2470   38.3956 H   0  0  0  0  0  0  0  0  0  0  0  0
   42.4123  -10.5697   36.7771 H   0  0  0  0  0  0  0  0  0  0  0  0
   42.0479  -12.3988   38.9399 H   0  0  0  0  0  0  0  0  0  0  0  0
   42.9093  -12.5981   37.5442 H   0  0  0  0  0  0  0  0  0  0  0  0
   39.5889  -12.8160   35.6829 H   0  0  0  0  0  0  0  0  0  0  0  0
   41.0510  -12.1181   35.4391 H   0  0  0  0  0  0  0  0  0  0  0  0
   39.7071  -10.3027   35.7365 H   0  0  0  0  0  0  0  0  0  0  0  0
   38.8382  -11.0696   36.9209 H   0  0  0  0  0  0  0  0  0  0  0  0
   39.2756   -7.4009   45.3104 H   0  0  0  0  0  0  0  0  0  0  0  0
   40.1457   -8.0602   44.0628 H   0  0  0  0  0  0  0  0  0  0  0  0
  1  2  1  0  0  0  0
  1 52  1  0  0  0  0
  1 53  1  0  0  0  0
  1 54  1  0  0  0  0
  2  3  2  0  0  0  0
  2  4  2  0  0  0  0
  2  5  1  0  0  0  0
  5  6  1  0  0  0  0
  5 50  1  0  0  0  0
  6  7  1  0  0  0  0
  6 55  1  0  0  0  0
  6 56  1  0  0  0  0
  7  8  1  0  0  0  0
  7 57  1  0  0  0  0
  7 58  1  0  0  0  0
  8  9  2  0  0  0  0
  8 12  1  0  0  0  0
  9 10  1  0  0  0  0
  9 50  1  0  0  0  0
 10 11  2  0  0  0  0
 10 29  1  0  0  0  0
 11 12  1  0  0  0  0
 12 13  1  0  0  0  0
 13 14  1  0  0  0  0
 13 59  1  0  0  0  0
 13 60  1  0  0  0  0
 14 15  1  0  0  0  0
 14 28  1  0  0  0  0
 14 51  1  1  0  0  0
 15 16  1  0  0  0  0
 15 61  1  0  0  0  0
 15 62  1  0  0  0  0
 16 17  1  0  0  0  0
 16 21  1  0  0  0  0
 16 63  1  6  0  0  0
 17 18  1  0  0  0  0
 17 64  1  0  0  0  0
 17 65  1  0  0  0  0
 18 19  1  0  0  0  0
 18 66  1  0  0  0  0
 18 67  1  0  0  0  0
 19 20  1  0  0  0  0
 19 22  1  0  0  0  0
 19 68  1  1  0  0  0
 20 21  1  0  0  0  0
 20 69  1  0  0  0  0
 20 70  1  0  0  0  0
 21 71  1  0  0  0  0
 21 72  1  0  0  0  0
 22 23  2  0  0  0  0
 22 27  1  0  0  0  0
 23 24  1  0  0  0  0
 23 73  1  0  0  0  0
 24 25  2  0  0  0  0
 24 74  1  0  0  0  0
 25 26  1  0  0  0  0
 25 75  1  0  0  0  0
 26 27  2  0  0  0  0
 26 76  1  0  0  0  0
 28 77  1  0  0  0  0
 29 30  2  0  0  0  0
 29 34  1  0  0  0  0
 30 31  1  0  0  0  0
 30 78  1  0  0  0  0
 31 32  2  0  0  0  0
 31 79  1  0  0  0  0
 32 33  1  0  0  0  0
 32 46  1  0  0  0  0
 33 34  2  0  0  0  0
 33 35  1  0  0  0  0
 34 80  1  0  0  0  0
 35 36  1  0  0  0  0
 36 37  1  0  0  0  0
 36 81  1  0  0  0  0
 36 82  1  0  0  0  0
 37 38  1  0  0  0  0
 37 83  1  0  0  0  0
 37 84  1  0  0  0  0
 38 39  1  0  0  0  0
 38 43  1  0  0  0  0
 38 85  1  0  0  0  0
 39 40  1  0  0  0  0
 39 86  1  0  0  0  0
 39 87  1  0  0  0  0
 40 41  1  0  0  0  0
 40 88  1  0  0  0  0
 40 89  1  0  0  0  0
 41 42  1  0  0  0  0
 41 44  1  0  0  0  0
 41 45  1  0  0  0  0
 42 43  1  0  0  0  0
 42 90  1  0  0  0  0
 42 91  1  0  0  0  0
 43 92  1  0  0  0  0
 43 93  1  0  0  0  0
 46 47  1  0  0  0  0
 46 48  1  0  0  0  0
 46 49  1  0  0  0  0
 50 94  1  0  0  0  0
 50 95  1  0  0  0  0
M  CHG  2  16   1  38   1
M  END
