CatS_375:1_D
 OpenBabel12041818463D

 89 94  0  0  1  0  0  0  0  0999 V2000
   47.5119   -2.0645   38.3516 C   0  0  0  0  0  0  0  0  0  0  0  0
   46.4302   -1.9516   39.1928 C   0  0  0  0  0  0  0  0  0  0  0  0
   46.5847   -2.2471   40.5441 C   0  0  0  0  0  0  0  0  0  0  0  0
   47.8214   -2.6508   41.0290 C   0  0  0  0  0  0  0  0  0  0  0  0
   48.8871   -2.7588   40.1822 C   0  0  0  0  0  0  0  0  0  0  0  0
   48.7404   -2.4679   38.8443 C   0  0  0  0  0  0  0  0  0  0  0  0
   50.0152   -2.6417   38.0406 C   0  0  0  0  0  0  0  0  0  0  0  0
   50.3190   -4.0275   37.5532 N   0  3  0  0  0  0  0  0  0  0  0  0
   50.8609   -4.0115   36.1508 C   0  0  0  0  0  0  0  0  0  0  0  0
   51.0730   -5.3690   35.5054 C   0  0  0  0  0  0  0  0  0  0  0  0
   50.2155   -6.3738   35.8920 C   0  0  0  0  0  0  0  0  0  0  0  0
   50.3363   -7.6347   35.3578 C   0  0  0  0  0  0  0  0  0  0  0  0
   51.3195   -7.8947   34.4302 C   0  0  0  0  0  0  0  0  0  0  0  0
   52.1785   -6.8916   34.0380 C   0  0  0  0  0  0  0  0  0  0  0  0
   52.0557   -5.6303   34.5750 C   0  0  0  0  0  0  0  0  0  0  0  0
   51.4713   -9.4905   33.7576 Cl  0  0  0  0  0  0  0  0  0  0  0  0
   45.5449   -2.1723   41.5346 C   0  0  0  0  0  0  0  0  0  0  0  0
   44.7211   -2.2513   42.4291 C   0  0  0  0  0  0  0  0  0  0  0  0
   43.8361   -2.5122   43.5320 C   0  0  0  0  0  0  0  0  0  0  0  0
   43.1698   -3.7260   43.4646 C   0  0  0  0  0  0  0  0  0  0  0  0
   42.2873   -4.1257   44.4421 C   0  0  0  0  0  0  0  0  0  0  0  0
   42.0759   -3.2613   45.5090 C   0  0  0  0  0  0  0  0  0  0  0  0
   42.7359   -2.0495   45.5890 C   0  0  0  0  0  0  0  0  0  0  0  0
   43.6214   -1.6611   44.6089 C   0  0  0  0  0  0  0  0  0  0  0  0
   44.4655   -0.1424   44.6998 Cl  0  0  0  0  0  0  0  0  0  0  0  0
   41.6240   -5.4184   44.3186 C   0  0  0  0  0  0  0  0  0  0  0  0
   40.5993   -5.8052   43.4186 C   0  0  0  0  0  0  0  0  0  0  0  0
   40.3672   -7.0836   43.7263 C   0  0  0  0  0  0  0  0  0  0  0  0
   41.1473   -7.5201   44.7438 N   0  0  0  0  0  0  0  0  0  0  0  0
   41.9164   -6.4563   45.0780 N   0  0  0  0  0  0  0  0  0  0  0  0
   41.2218   -8.8503   45.3619 C   0  0  0  0  0  0  0  0  0  0  0  0
   39.9050   -9.3772   45.9556 C   0  0  1  0  0  0  0  0  0  0  0  0
   40.0434  -10.8874   46.2449 C   0  0  0  0  0  0  0  0  0  0  0  0
   39.9102  -11.7686   45.0294 N   0  3  0  0  0  0  0  0  0  0  0  0
   38.4810  -11.8158   44.5432 C   0  0  0  0  0  0  0  0  0  0  0  0
   38.3345  -12.5412   43.1915 C   0  0  0  0  0  0  0  0  0  0  0  0
   38.9014  -14.2552   43.3248 S   0  0  0  0  0  0  0  0  0  0  0  0
   40.5740  -13.9618   43.9502 C   0  0  0  0  0  0  0  0  0  0  0  0
   40.5045  -13.1399   45.2492 C   0  0  0  0  0  0  0  0  0  0  0  0
   39.5803   -8.6488   47.1491 O   0  0  0  0  0  0  0  0  0  0  0  0
   39.3334   -7.9396   43.0116 C   0  0  0  0  0  0  0  0  0  0  0  0
   38.9443   -7.3751   41.6264 C   0  0  0  0  0  0  0  0  0  0  0  0
   38.8352   -5.9023   41.6246 N   0  0  0  0  0  0  0  0  0  0  0  0
   39.8507   -5.0751   42.3105 C   0  0  0  0  0  0  0  0  0  0  0  0
   37.8338   -5.2815   40.9729 C   0  0  0  0  0  0  0  0  0  0  0  0
   37.6145   -4.0785   41.0210 O   0  0  0  0  0  0  0  0  0  0  0  0
   36.8784   -6.0125   40.1073 C   0  0  0  0  0  0  0  0  0  0  0  0
   35.8086   -6.3610   40.5858 O   0  0  0  0  0  0  0  0  0  0  0  0
   37.2433   -6.2039   38.8328 N   0  0  0  0  0  0  0  0  0  0  0  0
   39.1605   -9.2449   45.3012 H   0  0  0  0  0  0  0  0  0  0  0  0
   47.4103   -1.8540   37.3793 H   0  0  0  0  0  0  0  0  0  0  0  0
   45.5419   -1.6603   38.8376 H   0  0  0  0  0  0  0  0  0  0  0  0
   47.9319   -2.8627   42.0001 H   0  0  0  0  0  0  0  0  0  0  0  0
   49.7765   -3.0500   40.5346 H   0  0  0  0  0  0  0  0  0  0  0  0
   50.7792   -2.3448   38.6133 H   0  0  0  0  0  0  0  0  0  0  0  0
   49.8808   -2.0967   37.2130 H   0  0  0  0  0  0  0  0  0  0  0  0
   49.5686   -4.5422   37.5921 H   0  0  0  0  0  0  0  0  0  0  0  0
   50.9113   -4.4283   38.1172 H   0  0  0  0  0  0  0  0  0  0  0  0
   51.7407   -3.5363   36.1664 H   0  0  0  0  0  0  0  0  0  0  0  0
   50.1634   -3.5566   35.5970 H   0  0  0  0  0  0  0  0  0  0  0  0
   49.5005   -6.1855   36.5653 H   0  0  0  0  0  0  0  0  0  0  0  0
   49.7112   -8.3615   35.6425 H   0  0  0  0  0  0  0  0  0  0  0  0
   52.8916   -7.0800   33.3627 H   0  0  0  0  0  0  0  0  0  0  0  0
   52.6799   -4.9030   34.2899 H   0  0  0  0  0  0  0  0  0  0  0  0
   43.3351   -4.3281   42.6834 H   0  0  0  0  0  0  0  0  0  0  0  0
   41.4351   -3.5203   46.2317 H   0  0  0  0  0  0  0  0  0  0  0  0
   42.5680   -1.4468   46.3690 H   0  0  0  0  0  0  0  0  0  0  0  0
   41.9006   -8.8134   46.0953 H   0  0  0  0  0  0  0  0  0  0  0  0
   41.4625   -9.4826   44.6255 H   0  0  0  0  0  0  0  0  0  0  0  0
   39.3360  -11.1476   46.9021 H   0  0  0  0  0  0  0  0  0  0  0  0
   40.9691  -11.0268   46.5969 H   0  0  0  0  0  0  0  0  0  0  0  0
   40.3905  -11.3686   44.3676 H   0  0  0  0  0  0  0  0  0  0  0  0
   38.1444  -10.8794   44.4444 H   0  0  0  0  0  0  0  0  0  0  0  0
   37.9501  -12.3285   45.2180 H   0  0  0  0  0  0  0  0  0  0  0  0
   38.8786  -12.0651   42.5005 H   0  0  0  0  0  0  0  0  0  0  0  0
   37.3699  -12.5412   42.9282 H   0  0  0  0  0  0  0  0  0  0  0  0
   41.1039  -13.4617   43.2652 H   0  0  0  0  0  0  0  0  0  0  0  0
   41.0162  -14.8389   44.1377 H   0  0  0  0  0  0  0  0  0  0  0  0
   39.9432  -13.6323   45.9145 H   0  0  0  0  0  0  0  0  0  0  0  0
   41.4393  -13.0179   45.5827 H   0  0  0  0  0  0  0  0  0  0  0  0
   39.8305   -7.6780   47.0684 H   0  0  0  0  0  0  0  0  0  0  0  0
   38.5123   -7.9929   43.5800 H   0  0  0  0  0  0  0  0  0  0  0  0
   39.7386   -8.8419   42.8650 H   0  0  0  0  0  0  0  0  0  0  0  0
   38.0638   -7.7644   41.3559 H   0  0  0  0  0  0  0  0  0  0  0  0
   39.6680   -7.6250   40.9832 H   0  0  0  0  0  0  0  0  0  0  0  0
   40.5161   -4.7632   41.6322 H   0  0  0  0  0  0  0  0  0  0  0  0
   39.3611   -4.3178   42.7427 H   0  0  0  0  0  0  0  0  0  0  0  0
   38.0266   -5.9187   38.5513 H   0  0  0  0  0  0  0  0  0  0  0  0
   36.6973   -6.6103   38.2753 H   0  0  0  0  0  0  0  0  0  0  0  0
  1  2  2  0  0  0  0
  1  6  1  0  0  0  0
  1 51  1  0  0  0  0
  2  3  1  0  0  0  0
  2 52  1  0  0  0  0
  3  4  2  0  0  0  0
  3 17  1  0  0  0  0
  4  5  1  0  0  0  0
  4 53  1  0  0  0  0
  5  6  2  0  0  0  0
  5 54  1  0  0  0  0
  6  7  1  0  0  0  0
  7  8  1  0  0  0  0
  7 55  1  0  0  0  0
  7 56  1  0  0  0  0
  8  9  1  0  0  0  0
  8 57  1  0  0  0  0
  8 58  1  0  0  0  0
  9 10  1  0  0  0  0
  9 59  1  0  0  0  0
  9 60  1  0  0  0  0
 10 11  2  0  0  0  0
 10 15  1  0  0  0  0
 11 12  1  0  0  0  0
 11 61  1  0  0  0  0
 12 13  2  0  0  0  0
 12 62  1  0  0  0  0
 13 14  1  0  0  0  0
 13 16  1  0  0  0  0
 14 15  2  0  0  0  0
 14 63  1  0  0  0  0
 15 64  1  0  0  0  0
 17 18  3  0  0  0  0
 18 19  1  0  0  0  0
 19 20  2  0  0  0  0
 19 24  1  0  0  0  0
 20 21  1  0  0  0  0
 20 65  1  0  0  0  0
 21 22  2  0  0  0  0
 21 26  1  0  0  0  0
 22 23  1  0  0  0  0
 22 66  1  0  0  0  0
 23 24  2  0  0  0  0
 23 67  1  0  0  0  0
 24 25  1  0  0  0  0
 26 27  1  0  0  0  0
 26 30  2  0  0  0  0
 27 28  2  0  0  0  0
 27 44  1  0  0  0  0
 28 29  1  0  0  0  0
 28 41  1  0  0  0  0
 29 30  1  0  0  0  0
 29 31  1  0  0  0  0
 31 32  1  0  0  0  0
 31 68  1  0  0  0  0
 31 69  1  0  0  0  0
 32 33  1  0  0  0  0
 32 40  1  0  0  0  0
 32 50  1  6  0  0  0
 33 34  1  0  0  0  0
 33 70  1  0  0  0  0
 33 71  1  0  0  0  0
 34 35  1  0  0  0  0
 34 39  1  0  0  0  0
 34 72  1  0  0  0  0
 35 36  1  0  0  0  0
 35 73  1  0  0  0  0
 35 74  1  0  0  0  0
 36 37  1  0  0  0  0
 36 75  1  0  0  0  0
 36 76  1  0  0  0  0
 37 38  1  0  0  0  0
 38 39  1  0  0  0  0
 38 77  1  0  0  0  0
 38 78  1  0  0  0  0
 39 79  1  0  0  0  0
 39 80  1  0  0  0  0
 40 81  1  0  0  0  0
 41 42  1  0  0  0  0
 41 82  1  0  0  0  0
 41 83  1  0  0  0  0
 42 43  1  0  0  0  0
 42 84  1  0  0  0  0
 42 85  1  0  0  0  0
 43 44  1  0  0  0  0
 43 45  1  0  0  0  0
 44 86  1  0  0  0  0
 44 87  1  0  0  0  0
 45 46  2  0  0  0  0
 45 47  1  0  0  0  0
 47 48  2  0  0  0  0
 47 49  1  0  0  0  0
 49 88  1  0  0  0  0
 49 89  1  0  0  0  0
M  CHG  2   8   1  34   1
M  END
