CatS_43:1_D
 OpenBabel12041818463D

 87 92  0  0  0  0  0  0  0  0999 V2000
   43.5565   -8.4172   48.8755 C   0  0  0  0  0  0  0  0  0  0  0  0
   41.9572   -7.5741   49.0333 S   0  0  0  0  0  0  0  0  0  0  0  0
   42.1676   -6.3003   49.6378 O   0  0  0  0  0  0  0  0  0  0  0  0
   41.0575   -8.4597   49.6954 O   0  0  0  0  0  0  0  0  0  0  0  0
   41.3573   -7.3131   47.5431 N   0  0  0  0  0  0  0  0  0  0  0  0
   41.0916   -8.5004   46.7021 C   0  0  0  0  0  0  0  0  0  0  0  0
   40.2365   -8.1764   45.4554 C   0  0  0  0  0  0  0  0  0  0  0  0
   40.6776   -6.8869   44.7891 C   0  0  0  0  0  0  0  0  0  0  0  0
   41.5437   -6.0513   45.3712 C   0  0  0  0  0  0  0  0  0  0  0  0
   41.7016   -5.0178   44.4143 C   0  0  0  0  0  0  0  0  0  0  0  0
   40.9297   -5.2957   43.3888 N   0  0  0  0  0  0  0  0  0  0  0  0
   40.2558   -6.4510   43.5734 N   0  0  0  0  0  0  0  0  0  0  0  0
   39.2112   -6.9456   42.6605 C   0  0  0  0  0  0  0  0  0  0  0  0
   39.4992   -6.9577   41.1422 C   0  0  0  0  0  0  0  0  0  0  0  0
   39.0739   -5.6450   40.4356 C   0  0  0  0  0  0  0  0  0  0  0  0
   37.7383   -5.7175   39.7321 N   0  3  0  0  0  0  0  0  0  0  0  0
   36.6503   -5.0486   40.5363 C   0  0  0  0  0  0  0  0  0  0  0  0
   35.2976   -5.1418   39.8030 C   0  0  0  0  0  0  0  0  0  0  0  0
   34.9836   -6.5125   39.4935 O   0  0  0  0  0  0  0  0  0  0  0  0
   35.9721   -7.1182   38.6390 C   0  0  0  0  0  0  0  0  0  0  0  0
   37.3547   -7.1200   39.3232 C   0  0  0  0  0  0  0  0  0  0  0  0
   42.5032   -3.8031   44.4399 C   0  0  0  0  0  0  0  0  0  0  0  0
   42.4136   -2.8206   45.4219 C   0  0  0  0  0  0  0  0  0  0  0  0
   43.2060   -1.6911   45.3603 C   0  0  0  0  0  0  0  0  0  0  0  0
   44.1013   -1.5172   44.3310 C   0  0  0  0  0  0  0  0  0  0  0  0
   44.2168   -2.5029   43.3553 C   0  0  0  0  0  0  0  0  0  0  0  0
   43.4184   -3.6359   43.4255 C   0  0  0  0  0  0  0  0  0  0  0  0
   45.1380   -2.3973   42.2533 C   0  0  0  0  0  0  0  0  0  0  0  0
   45.9694   -2.3054   41.3651 C   0  0  0  0  0  0  0  0  0  0  0  0
   47.0105   -2.1991   40.3763 C   0  0  0  0  0  0  0  0  0  0  0  0
   46.7427   -2.2829   39.0119 C   0  0  0  0  0  0  0  0  0  0  0  0
   47.7766   -2.2829   38.1128 C   0  0  0  0  0  0  0  0  0  0  0  0
   49.0924   -2.1949   38.5499 C   0  0  0  0  0  0  0  0  0  0  0  0
   49.3466   -2.0423   39.9064 C   0  0  0  0  0  0  0  0  0  0  0  0
   48.3237   -2.0558   40.8120 C   0  0  0  0  0  0  0  0  0  0  0  0
   50.1440   -2.2653   37.6305 N   0  0  0  0  0  0  0  0  0  0  0  0
   51.1633   -3.3354   37.7262 C   0  0  0  0  0  0  0  0  0  0  0  0
   51.8410   -3.8935   36.4531 C   0  0  0  0  0  0  0  0  0  0  0  0
   51.3207   -5.2133   35.9018 C   0  0  0  0  0  0  0  0  0  0  0  0
   50.4168   -5.9311   36.6558 C   0  0  0  0  0  0  0  0  0  0  0  0
   49.9271   -7.1348   36.2042 C   0  0  0  0  0  0  0  0  0  0  0  0
   50.3414   -7.6316   34.9907 C   0  0  0  0  0  0  0  0  0  0  0  0
   51.2459   -6.9233   34.2336 C   0  0  0  0  0  0  0  0  0  0  0  0
   51.7353   -5.7196   34.6885 C   0  0  0  0  0  0  0  0  0  0  0  0
   45.0872   -0.0853   44.2526 Cl  0  0  0  0  0  0  0  0  0  0  0  0
   42.1286   -6.3243   46.7526 C   0  0  0  0  0  0  0  0  0  0  0  0
   43.7568   -8.5567   47.9058 H   0  0  0  0  0  0  0  0  0  0  0  0
   44.2750   -7.8593   49.2910 H   0  0  0  0  0  0  0  0  0  0  0  0
   43.5191   -9.3004   49.3429 H   0  0  0  0  0  0  0  0  0  0  0  0
   40.6107   -9.1822   47.2533 H   0  0  0  0  0  0  0  0  0  0  0  0
   41.9740   -8.8418   46.3783 H   0  0  0  0  0  0  0  0  0  0  0  0
   39.2791   -8.0901   45.7312 H   0  0  0  0  0  0  0  0  0  0  0  0
   40.3526   -8.9203   44.7972 H   0  0  0  0  0  0  0  0  0  0  0  0
   38.4002   -6.3787   42.8043 H   0  0  0  0  0  0  0  0  0  0  0  0
   39.1201   -7.9129   42.8970 H   0  0  0  0  0  0  0  0  0  0  0  0
   39.0028   -7.7208   40.7281 H   0  0  0  0  0  0  0  0  0  0  0  0
   40.4878   -7.0524   41.0256 H   0  0  0  0  0  0  0  0  0  0  0  0
   39.7734   -5.4111   39.7603 H   0  0  0  0  0  0  0  0  0  0  0  0
   38.9798   -4.9537   41.1521 H   0  0  0  0  0  0  0  0  0  0  0  0
   37.8158   -5.2324   38.9642 H   0  0  0  0  0  0  0  0  0  0  0  0
   36.8862   -4.0867   40.6748 H   0  0  0  0  0  0  0  0  0  0  0  0
   36.5701   -5.5130   41.4183 H   0  0  0  0  0  0  0  0  0  0  0  0
   35.3441   -4.6130   38.9556 H   0  0  0  0  0  0  0  0  0  0  0  0
   34.5823   -4.7745   40.3976 H   0  0  0  0  0  0  0  0  0  0  0  0
   36.0272   -6.6047   37.7826 H   0  0  0  0  0  0  0  0  0  0  0  0
   35.7035   -8.0639   38.4560 H   0  0  0  0  0  0  0  0  0  0  0  0
   37.3239   -7.7049   40.1337 H   0  0  0  0  0  0  0  0  0  0  0  0
   38.0352   -7.4686   38.6785 H   0  0  0  0  0  0  0  0  0  0  0  0
   41.7698   -2.9335   46.1787 H   0  0  0  0  0  0  0  0  0  0  0  0
   43.1279   -0.9924   46.0714 H   0  0  0  0  0  0  0  0  0  0  0  0
   43.5099   -4.3444   42.7257 H   0  0  0  0  0  0  0  0  0  0  0  0
   45.7980   -2.3427   38.6892 H   0  0  0  0  0  0  0  0  0  0  0  0
   47.5825   -2.3469   37.1339 H   0  0  0  0  0  0  0  0  0  0  0  0
   50.2873   -1.9215   40.2236 H   0  0  0  0  0  0  0  0  0  0  0  0
   48.5191   -1.9625   41.7883 H   0  0  0  0  0  0  0  0  0  0  0  0
   49.9806   -1.9538   36.8220 H   0  0  0  0  0  0  0  0  0  0  0  0
   50.7248   -4.1097   38.1824 H   0  0  0  0  0  0  0  0  0  0  0  0
   51.9188   -2.8827   38.1998 H   0  0  0  0  0  0  0  0  0  0  0  0
   52.8125   -4.0134   36.6574 H   0  0  0  0  0  0  0  0  0  0  0  0
   51.6358   -3.2226   35.7405 H   0  0  0  0  0  0  0  0  0  0  0  0
   50.1142   -5.5734   37.5392 H   0  0  0  0  0  0  0  0  0  0  0  0
   49.2709   -7.6477   36.7576 H   0  0  0  0  0  0  0  0  0  0  0  0
   49.9860   -8.5056   34.6592 H   0  0  0  0  0  0  0  0  0  0  0  0
   51.5485   -7.2836   33.3511 H   0  0  0  0  0  0  0  0  0  0  0  0
   52.3948   -5.2099   34.1359 H   0  0  0  0  0  0  0  0  0  0  0  0
   43.0616   -6.6663   46.6409 H   0  0  0  0  0  0  0  0  0  0  0  0
   42.0984   -5.4610   47.2565 H   0  0  0  0  0  0  0  0  0  0  0  0
  1  2  1  0  0  0  0
  1 47  1  0  0  0  0
  1 48  1  0  0  0  0
  1 49  1  0  0  0  0
  2  3  2  0  0  0  0
  2  4  2  0  0  0  0
  2  5  1  0  0  0  0
  5  6  1  0  0  0  0
  5 46  1  0  0  0  0
  6  7  1  0  0  0  0
  6 50  1  0  0  0  0
  6 51  1  0  0  0  0
  7  8  1  0  0  0  0
  7 52  1  0  0  0  0
  7 53  1  0  0  0  0
  8  9  2  0  0  0  0
  8 12  1  0  0  0  0
  9 10  1  0  0  0  0
  9 46  1  0  0  0  0
 10 11  2  0  0  0  0
 10 22  1  0  0  0  0
 11 12  1  0  0  0  0
 12 13  1  0  0  0  0
 13 14  1  0  0  0  0
 13 54  1  0  0  0  0
 13 55  1  0  0  0  0
 14 15  1  0  0  0  0
 14 56  1  0  0  0  0
 14 57  1  0  0  0  0
 15 16  1  0  0  0  0
 15 58  1  0  0  0  0
 15 59  1  0  0  0  0
 16 17  1  0  0  0  0
 16 21  1  0  0  0  0
 16 60  1  0  0  0  0
 17 18  1  0  0  0  0
 17 61  1  0  0  0  0
 17 62  1  0  0  0  0
 18 19  1  0  0  0  0
 18 63  1  0  0  0  0
 18 64  1  0  0  0  0
 19 20  1  0  0  0  0
 20 21  1  0  0  0  0
 20 65  1  0  0  0  0
 20 66  1  0  0  0  0
 21 67  1  0  0  0  0
 21 68  1  0  0  0  0
 22 23  2  0  0  0  0
 22 27  1  0  0  0  0
 23 24  1  0  0  0  0
 23 69  1  0  0  0  0
 24 25  2  0  0  0  0
 24 70  1  0  0  0  0
 25 26  1  0  0  0  0
 25 45  1  0  0  0  0
 26 27  2  0  0  0  0
 26 28  1  0  0  0  0
 27 71  1  0  0  0  0
 28 29  3  0  0  0  0
 29 30  1  0  0  0  0
 30 31  2  0  0  0  0
 30 35  1  0  0  0  0
 31 32  1  0  0  0  0
 31 72  1  0  0  0  0
 32 33  2  0  0  0  0
 32 73  1  0  0  0  0
 33 34  1  0  0  0  0
 33 36  1  0  0  0  0
 34 35  2  0  0  0  0
 34 74  1  0  0  0  0
 35 75  1  0  0  0  0
 36 37  1  0  0  0  0
 36 76  1  0  0  0  0
 37 38  1  0  0  0  0
 37 77  1  0  0  0  0
 37 78  1  0  0  0  0
 38 39  1  0  0  0  0
 38 79  1  0  0  0  0
 38 80  1  0  0  0  0
 39 40  2  0  0  0  0
 39 44  1  0  0  0  0
 40 41  1  0  0  0  0
 40 81  1  0  0  0  0
 41 42  2  0  0  0  0
 41 82  1  0  0  0  0
 42 43  1  0  0  0  0
 42 83  1  0  0  0  0
 43 44  2  0  0  0  0
 43 84  1  0  0  0  0
 44 85  1  0  0  0  0
 46 86  1  0  0  0  0
 46 87  1  0  0  0  0
M  CHG  1  16   1
M  END
