CatS_81:1_D
 OpenBabel12041818463D

 87 91  0  0  1  0  0  0  0  0999 V2000
   40.8045  -10.6892   45.9050 C   0  0  0  0  0  0  0  0  0  0  0  0
   39.9211   -9.3230   46.7153 S   0  0  0  0  0  0  0  0  0  0  0  0
   40.2106   -9.3518   48.1095 O   0  0  0  0  0  0  0  0  0  0  0  0
   38.5254   -9.4794   46.4784 O   0  0  0  0  0  0  0  0  0  0  0  0
   40.3675   -7.8711   46.1075 N   0  0  0  0  0  0  0  0  0  0  0  0
   41.7587   -7.4813   46.4343 C   0  0  0  0  0  0  0  0  0  0  0  0
   42.0770   -5.9831   46.1973 C   0  0  0  0  0  0  0  0  0  0  0  0
   41.3887   -5.4399   44.9576 C   0  0  0  0  0  0  0  0  0  0  0  0
   40.4894   -6.1692   44.2870 C   0  0  0  0  0  0  0  0  0  0  0  0
   40.0836   -5.3087   43.2408 C   0  0  0  0  0  0  0  0  0  0  0  0
   40.7283   -4.1763   43.3732 N   0  0  0  0  0  0  0  0  0  0  0  0
   41.5807   -4.2082   44.4112 N   0  0  0  0  0  0  0  0  0  0  0  0
   42.6040   -3.1758   44.5929 C   0  0  0  0  0  0  0  0  0  0  0  0
   42.5738   -1.8396   45.3547 C   0  0  2  0  0  0  0  0  0  0  0  0
   42.6665   -2.1071   46.8795 C   0  0  0  0  0  0  0  0  0  0  0  0
   41.8657   -1.1470   47.7328 N   0  3  1  0  0  0  0  0  0  0  0  0
   41.6432   -1.6224   49.1477 C   0  0  0  0  0  0  0  0  0  0  0  0
   40.6406   -0.6938   49.8720 C   0  0  0  0  0  0  0  0  0  0  0  0
   41.0561    0.7911   49.7653 C   0  0  0  0  0  0  0  0  0  0  0  0
   41.3133    1.1980   48.3000 C   0  0  1  0  0  0  0  0  0  0  0  0
   42.3994    0.2668   47.7277 C   0  0  0  0  0  0  0  0  0  0  0  0
   40.1083    1.0921   47.5229 O   0  0  0  0  0  0  0  0  0  0  0  0
   41.3541   -1.1351   45.0811 O   0  0  0  0  0  0  0  0  0  0  0  0
   39.1349   -5.4824   42.1589 C   0  0  0  0  0  0  0  0  0  0  0  0
   38.0484   -4.6366   42.1012 C   0  0  0  0  0  0  0  0  0  0  0  0
   37.1582   -4.7156   41.0611 C   0  0  0  0  0  0  0  0  0  0  0  0
   37.3205   -5.6358   40.0477 C   0  0  0  0  0  0  0  0  0  0  0  0
   38.4087   -6.4951   40.1111 C   0  0  0  0  0  0  0  0  0  0  0  0
   39.3068   -6.4236   41.1546 C   0  0  0  0  0  0  0  0  0  0  0  0
   38.7175   -7.6933   38.8064 S   0  0  0  0  0  0  0  0  0  0  0  0
   40.4915   -7.8239   38.4769 C   0  0  0  0  0  0  0  0  0  0  0  0
   40.6024   -8.7379   37.2415 C   0  0  0  0  0  0  0  0  0  0  0  0
   40.6286  -10.2180   37.5231 N   0  3  1  0  0  0  0  0  0  0  0  0
   39.8259  -10.9690   36.4869 C   0  0  0  0  0  0  0  0  0  0  0  0
   39.8388  -12.4890   36.7375 C   0  0  0  0  0  0  0  0  0  0  0  0
   41.2950  -12.9839   36.7671 C   0  0  1  0  0  0  0  0  0  0  0  0
   42.0388  -12.2794   37.9150 C   0  0  0  0  0  0  0  0  0  0  0  0
   42.0331  -10.7567   37.6756 C   0  0  0  0  0  0  0  0  0  0  0  0
   41.3157  -14.3578   36.9723 F   0  0  0  0  0  0  0  0  0  0  0  0
   36.2805   -5.6086   38.9301 C   0  0  0  0  0  0  0  0  0  0  0  0
   35.1340   -4.8869   39.2530 F   0  0  0  0  0  0  0  0  0  0  0  0
   36.8000   -5.0329   37.7757 F   0  0  0  0  0  0  0  0  0  0  0  0
   35.8748   -6.8980   38.6085 F   0  0  0  0  0  0  0  0  0  0  0  0
   40.1224   -7.5978   44.6732 C   0  0  0  0  0  0  0  0  0  0  0  0
   43.3504   -1.2853   45.0551 H   0  0  0  0  0  0  0  0  0  0  0  0
   41.6167    2.1501   48.2611 H   0  0  0  0  0  0  0  0  0  0  0  0
   41.4227  -10.3132   45.2147 H   0  0  0  0  0  0  0  0  0  0  0  0
   41.3298  -11.2018   46.5842 H   0  0  0  0  0  0  0  0  0  0  0  0
   40.1469  -11.3046   45.4701 H   0  0  0  0  0  0  0  0  0  0  0  0
   42.3785   -8.0280   45.8713 H   0  0  0  0  0  0  0  0  0  0  0  0
   41.8779   -7.6452   47.4136 H   0  0  0  0  0  0  0  0  0  0  0  0
   43.0657   -5.8750   46.0933 H   0  0  0  0  0  0  0  0  0  0  0  0
   41.7382   -5.4690   46.9853 H   0  0  0  0  0  0  0  0  0  0  0  0
   42.8482   -2.9143   43.6591 H   0  0  0  0  0  0  0  0  0  0  0  0
   43.1620   -3.6762   45.2550 H   0  0  0  0  0  0  0  0  0  0  0  0
   43.6267   -2.0447   47.1515 H   0  0  0  0  0  0  0  0  0  0  0  0
   42.2781   -3.0156   47.0336 H   0  0  0  0  0  0  0  0  0  0  0  0
   41.0332   -1.1226   47.3643 H   0  0  0  0  0  0  0  0  0  0  0  0
   42.5141   -1.6199   49.6393 H   0  0  0  0  0  0  0  0  0  0  0  0
   41.2695   -2.5496   49.1252 H   0  0  0  0  0  0  0  0  0  0  0  0
   40.5966   -0.9520   50.8371 H   0  0  0  0  0  0  0  0  0  0  0  0
   39.7475   -0.7983   49.4345 H   0  0  0  0  0  0  0  0  0  0  0  0
   41.8902    0.9364   50.2974 H   0  0  0  0  0  0  0  0  0  0  0  0
   40.3096    1.3535   50.1209 H   0  0  0  0  0  0  0  0  0  0  0  0
   42.6250    0.5411   46.7929 H   0  0  0  0  0  0  0  0  0  0  0  0
   43.2277    0.3235   48.2851 H   0  0  0  0  0  0  0  0  0  0  0  0
   39.3458    0.7369   48.0747 H   0  0  0  0  0  0  0  0  0  0  0  0
   41.1399   -1.1386   44.0993 H   0  0  0  0  0  0  0  0  0  0  0  0
   37.9081   -3.9597   42.8237 H   0  0  0  0  0  0  0  0  0  0  0  0
   36.3758   -4.0933   41.0373 H   0  0  0  0  0  0  0  0  0  0  0  0
   40.0841   -7.0519   41.1876 H   0  0  0  0  0  0  0  0  0  0  0  0
   40.9671   -8.2266   39.2590 H   0  0  0  0  0  0  0  0  0  0  0  0
   40.9107   -6.9297   38.3196 H   0  0  0  0  0  0  0  0  0  0  0  0
   41.4440   -8.5001   36.7565 H   0  0  0  0  0  0  0  0  0  0  0  0
   39.7710   -8.5781   36.7094 H   0  0  0  0  0  0  0  0  0  0  0  0
   40.2050  -10.3506   38.3191 H   0  0  0  0  0  0  0  0  0  0  0  0
   40.2108  -10.7849   35.5826 H   0  0  0  0  0  0  0  0  0  0  0  0
   38.8779  -10.6557   36.5444 H   0  0  0  0  0  0  0  0  0  0  0  0
   39.3394  -12.9543   36.0066 H   0  0  0  0  0  0  0  0  0  0  0  0
   39.3991  -12.6891   37.6131 H   0  0  0  0  0  0  0  0  0  0  0  0
   41.7412  -12.7754   35.8968 H   0  0  0  0  0  0  0  0  0  0  0  0
   42.9820  -12.6093   37.9547 H   0  0  0  0  0  0  0  0  0  0  0  0
   41.5806  -12.4804   38.7808 H   0  0  0  0  0  0  0  0  0  0  0  0
   42.4731  -10.3029   38.4504 H   0  0  0  0  0  0  0  0  0  0  0  0
   42.5296  -10.5747   36.8269 H   0  0  0  0  0  0  0  0  0  0  0  0
   39.1536   -7.7483   44.4763 H   0  0  0  0  0  0  0  0  0  0  0  0
   40.7002   -8.2161   44.1404 H   0  0  0  0  0  0  0  0  0  0  0  0
  1  2  1  0  0  0  0
  1 47  1  0  0  0  0
  1 48  1  0  0  0  0
  1 49  1  0  0  0  0
  2  3  2  0  0  0  0
  2  4  2  0  0  0  0
  2  5  1  0  0  0  0
  5  6  1  0  0  0  0
  5 44  1  0  0  0  0
  6  7  1  0  0  0  0
  6 50  1  0  0  0  0
  6 51  1  0  0  0  0
  7  8  1  0  0  0  0
  7 52  1  0  0  0  0
  7 53  1  0  0  0  0
  8  9  2  0  0  0  0
  8 12  1  0  0  0  0
  9 10  1  0  0  0  0
  9 44  1  0  0  0  0
 10 11  2  0  0  0  0
 10 24  1  0  0  0  0
 11 12  1  0  0  0  0
 12 13  1  0  0  0  0
 13 14  1  0  0  0  0
 13 54  1  0  0  0  0
 13 55  1  0  0  0  0
 14 15  1  0  0  0  0
 14 23  1  0  0  0  0
 14 45  1  6  0  0  0
 15 16  1  0  0  0  0
 15 56  1  0  0  0  0
 15 57  1  0  0  0  0
 16 17  1  0  0  0  0
 16 21  1  0  0  0  0
 16 58  1  6  0  0  0
 17 18  1  0  0  0  0
 17 59  1  0  0  0  0
 17 60  1  0  0  0  0
 18 19  1  0  0  0  0
 18 61  1  0  0  0  0
 18 62  1  0  0  0  0
 19 20  1  0  0  0  0
 19 63  1  0  0  0  0
 19 64  1  0  0  0  0
 20 21  1  0  0  0  0
 20 22  1  0  0  0  0
 20 46  1  6  0  0  0
 21 65  1  0  0  0  0
 21 66  1  0  0  0  0
 22 67  1  0  0  0  0
 23 68  1  0  0  0  0
 24 25  2  0  0  0  0
 24 29  1  0  0  0  0
 25 26  1  0  0  0  0
 25 69  1  0  0  0  0
 26 27  2  0  0  0  0
 26 70  1  0  0  0  0
 27 28  1  0  0  0  0
 27 40  1  0  0  0  0
 28 29  2  0  0  0  0
 28 30  1  0  0  0  0
 29 71  1  0  0  0  0
 30 31  1  0  0  0  0
 31 32  1  0  0  0  0
 31 72  1  0  0  0  0
 31 73  1  0  0  0  0
 32 33  1  0  0  0  0
 32 74  1  0  0  0  0
 32 75  1  0  0  0  0
 33 34  1  0  0  0  0
 33 38  1  0  0  0  0
 33 76  1  1  0  0  0
 34 35  1  0  0  0  0
 34 77  1  0  0  0  0
 34 78  1  0  0  0  0
 35 36  1  0  0  0  0
 35 79  1  0  0  0  0
 35 80  1  0  0  0  0
 36 37  1  0  0  0  0
 36 39  1  0  0  0  0
 36 81  1  6  0  0  0
 37 38  1  0  0  0  0
 37 82  1  0  0  0  0
 37 83  1  0  0  0  0
 38 84  1  0  0  0  0
 38 85  1  0  0  0  0
 40 41  1  0  0  0  0
 40 42  1  0  0  0  0
 40 43  1  0  0  0  0
 44 86  1  0  0  0  0
 44 87  1  0  0  0  0
M  CHG  2  16   1  33   1
M  END
