CatS_135:1_D
 OpenBabel12041818463D

 94 99  0  0  1  0  0  0  0  0999 V2000
   39.4334  -14.4076   45.5944 C   0  0  0  0  0  0  0  0  0  0  0  0
   40.4822  -13.8071   46.2531 C   0  0  0  0  0  0  0  0  0  0  0  0
   40.6229  -12.4402   46.2251 C   0  0  0  0  0  0  0  0  0  0  0  0
   39.7133  -11.6535   45.5374 C   0  0  0  0  0  0  0  0  0  0  0  0
   38.6642  -12.2702   44.8768 C   0  0  0  0  0  0  0  0  0  0  0  0
   38.5245  -13.6369   44.9054 C   0  0  0  0  0  0  0  0  0  0  0  0
   39.8330  -10.2537   45.4927 N   0  0  0  0  0  0  0  0  0  0  0  0
   40.7148   -9.4642   46.1568 C   0  0  0  0  0  0  0  0  0  0  0  0
   41.5106   -9.9414   46.9709 O   0  0  0  0  0  0  0  0  0  0  0  0
   40.6783   -8.1264   45.9207 N   0  0  0  0  0  0  0  0  0  0  0  0
   41.3837   -7.2145   46.8460 C   0  0  0  0  0  0  0  0  0  0  0  0
   42.1084   -6.0266   46.1761 C   0  0  0  0  0  0  0  0  0  0  0  0
   41.3429   -5.4727   44.9873 C   0  0  0  0  0  0  0  0  0  0  0  0
   40.3572   -6.1504   44.3908 C   0  0  0  0  0  0  0  0  0  0  0  0
   39.9243   -5.2754   43.3665 C   0  0  0  0  0  0  0  0  0  0  0  0
   40.6665   -4.1912   43.4108 N   0  0  0  0  0  0  0  0  0  0  0  0
   41.5741   -4.2640   44.4091 N   0  0  0  0  0  0  0  0  0  0  0  0
   42.4994   -3.1745   44.7588 C   0  0  0  0  0  0  0  0  0  0  0  0
   43.9131   -3.1785   44.1420 C   0  0  2  0  0  0  0  0  0  0  0  0
   43.9278   -2.3140   42.8608 C   0  0  0  0  0  0  0  0  0  0  0  0
   45.2004   -2.4353   42.0595 N   0  3  0  0  0  0  0  0  0  0  0  0
   45.0868   -1.8911   40.6560 C   0  0  0  0  0  0  0  0  0  0  0  0
   46.3830   -2.1635   39.8645 C   0  0  0  0  0  0  0  0  0  0  0  0
   47.5862   -1.5386   40.5966 C   0  0  0  0  0  0  0  0  0  0  0  0
   47.6942   -2.1139   42.0217 C   0  0  0  0  0  0  0  0  0  0  0  0
   46.3845   -1.8565   42.7946 C   0  0  0  0  0  0  0  0  0  0  0  0
   44.3286   -4.5196   43.8420 O   0  0  0  0  0  0  0  0  0  0  0  0
   38.8573   -5.4428   42.3924 C   0  0  0  0  0  0  0  0  0  0  0  0
   37.8441   -4.5114   42.2356 C   0  0  0  0  0  0  0  0  0  0  0  0
   36.8653   -4.6898   41.2856 C   0  0  0  0  0  0  0  0  0  0  0  0
   36.8564   -5.7962   40.4612 C   0  0  0  0  0  0  0  0  0  0  0  0
   37.8689   -6.7305   40.6264 C   0  0  0  0  0  0  0  0  0  0  0  0
   38.8507   -6.5551   41.5737 C   0  0  0  0  0  0  0  0  0  0  0  0
   37.9589   -8.2162   39.6195 S   0  0  0  0  0  0  0  0  0  0  0  0
   39.1406   -7.8314   38.2984 C   0  0  0  0  0  0  0  0  0  0  0  0
   40.4901   -8.5559   38.4978 C   0  0  0  0  0  0  0  0  0  0  0  0
   41.4015   -8.5543   37.2935 N   0  3  1  0  0  0  0  0  0  0  0  0
   42.4822   -7.5024   37.3737 C   0  0  0  0  0  0  0  0  0  0  0  0
   43.3570   -7.4980   36.1039 C   0  0  0  0  0  0  0  0  0  0  0  0
   43.9612   -8.8947   35.8702 C   0  0  1  0  0  0  0  0  0  0  0  0
   42.8302   -9.9315   35.7368 C   0  0  0  0  0  0  0  0  0  0  0  0
   41.9628   -9.9278   37.0128 C   0  0  0  0  0  0  0  0  0  0  0  0
   44.7135   -8.8774   34.7012 F   0  0  0  0  0  0  0  0  0  0  0  0
   35.7284   -5.8904   39.4344 C   0  0  0  0  0  0  0  0  0  0  0  0
   34.9547   -7.0396   39.5703 F   0  0  0  0  0  0  0  0  0  0  0  0
   34.8598   -4.8100   39.5417 F   0  0  0  0  0  0  0  0  0  0  0  0
   36.2282   -5.8918   38.1371 F   0  0  0  0  0  0  0  0  0  0  0  0
   39.8938   -7.5411   44.8048 C   0  0  0  0  0  0  0  0  0  0  0  0
   44.5546   -2.7918   44.8045 H   0  0  0  0  0  0  0  0  0  0  0  0
   39.3318  -15.4023   45.6164 H   0  0  0  0  0  0  0  0  0  0  0  0
   41.1433  -14.3666   46.7531 H   0  0  0  0  0  0  0  0  0  0  0  0
   41.3878  -12.0102   46.7048 H   0  0  0  0  0  0  0  0  0  0  0  0
   38.0015  -11.7153   44.3739 H   0  0  0  0  0  0  0  0  0  0  0  0
   37.7625  -14.0718   44.4256 H   0  0  0  0  0  0  0  0  0  0  0  0
   39.2506   -9.8448   44.9804 H   0  0  0  0  0  0  0  0  0  0  0  0
   42.0619   -7.7484   47.3511 H   0  0  0  0  0  0  0  0  0  0  0  0
   40.6782   -6.8129   47.4299 H   0  0  0  0  0  0  0  0  0  0  0  0
   43.0089   -6.3319   45.8666 H   0  0  0  0  0  0  0  0  0  0  0  0
   42.1834   -5.2956   46.8544 H   0  0  0  0  0  0  0  0  0  0  0  0
   42.6091   -3.1872   45.7526 H   0  0  0  0  0  0  0  0  0  0  0  0
   42.0698   -2.3578   44.3735 H   0  0  0  0  0  0  0  0  0  0  0  0
   43.8076   -1.3565   43.1233 H   0  0  0  0  0  0  0  0  0  0  0  0
   43.1855   -2.6444   42.2779 H   0  0  0  0  0  0  0  0  0  0  0  0
   45.3687   -3.3273   41.9799 H   0  0  0  0  0  0  0  0  0  0  0  0
   44.9236   -0.9052   40.6958 H   0  0  0  0  0  0  0  0  0  0  0  0
   44.3252   -2.3453   40.1936 H   0  0  0  0  0  0  0  0  0  0  0  0
   46.3047   -1.7657   38.9502 H   0  0  0  0  0  0  0  0  0  0  0  0
   46.5213   -3.1511   39.7900 H   0  0  0  0  0  0  0  0  0  0  0  0
   47.4674   -0.5469   40.6453 H   0  0  0  0  0  0  0  0  0  0  0  0
   48.4234   -1.7532   40.0933 H   0  0  0  0  0  0  0  0  0  0  0  0
   48.4556   -1.6766   42.5003 H   0  0  0  0  0  0  0  0  0  0  0  0
   47.8533   -3.0996   41.9666 H   0  0  0  0  0  0  0  0  0  0  0  0
   46.4475   -2.2778   43.6993 H   0  0  0  0  0  0  0  0  0  0  0  0
   46.2549   -0.8686   42.8795 H   0  0  0  0  0  0  0  0  0  0  0  0
   45.3082   -4.5583   43.6158 H   0  0  0  0  0  0  0  0  0  0  0  0
   37.8240   -3.6999   42.8198 H   0  0  0  0  0  0  0  0  0  0  0  0
   36.1448   -4.0029   41.1905 H   0  0  0  0  0  0  0  0  0  0  0  0
   39.5701   -7.2429   41.6710 H   0  0  0  0  0  0  0  0  0  0  0  0
   39.3005   -6.8445   38.2840 H   0  0  0  0  0  0  0  0  0  0  0  0
   38.7487   -8.1453   37.4335 H   0  0  0  0  0  0  0  0  0  0  0  0
   40.2998   -9.5062   38.7442 H   0  0  0  0  0  0  0  0  0  0  0  0
   40.9741   -8.0512   39.2127 H   0  0  0  0  0  0  0  0  0  0  0  0
   40.8806   -8.3403   36.5766 H   0  0  0  0  0  0  0  0  0  0  0  0
   43.0595   -7.6866   38.1692 H   0  0  0  0  0  0  0  0  0  0  0  0
   42.0446   -6.6070   37.4564 H   0  0  0  0  0  0  0  0  0  0  0  0
   44.0936   -6.8302   36.2107 H   0  0  0  0  0  0  0  0  0  0  0  0
   42.7895   -7.2535   35.3176 H   0  0  0  0  0  0  0  0  0  0  0  0
   44.5454   -9.1404   36.6438 H   0  0  0  0  0  0  0  0  0  0  0  0
   43.2253  -10.8404   35.6037 H   0  0  0  0  0  0  0  0  0  0  0  0
   42.2588   -9.6964   34.9505 H   0  0  0  0  0  0  0  0  0  0  0  0
   41.2071  -10.5723   36.8973 H   0  0  0  0  0  0  0  0  0  0  0  0
   42.5395  -10.1956   37.7846 H   0  0  0  0  0  0  0  0  0  0  0  0
   38.9357   -7.4862   45.0860 H   0  0  0  0  0  0  0  0  0  0  0  0
   40.0243   -8.1378   44.0130 H   0  0  0  0  0  0  0  0  0  0  0  0
  1  2  2  0  0  0  0
  1  6  1  0  0  0  0
  1 50  1  0  0  0  0
  2  3  1  0  0  0  0
  2 51  1  0  0  0  0
  3  4  2  0  0  0  0
  3 52  1  0  0  0  0
  4  5  1  0  0  0  0
  4  7  1  0  0  0  0
  5  6  2  0  0  0  0
  5 53  1  0  0  0  0
  6 54  1  0  0  0  0
  7  8  1  0  0  0  0
  7 55  1  0  0  0  0
  8  9  2  0  0  0  0
  8 10  1  0  0  0  0
 10 11  1  0  0  0  0
 10 48  1  0  0  0  0
 11 12  1  0  0  0  0
 11 56  1  0  0  0  0
 11 57  1  0  0  0  0
 12 13  1  0  0  0  0
 12 58  1  0  0  0  0
 12 59  1  0  0  0  0
 13 14  2  0  0  0  0
 13 17  1  0  0  0  0
 14 15  1  0  0  0  0
 14 48  1  0  0  0  0
 15 16  2  0  0  0  0
 15 28  1  0  0  0  0
 16 17  1  0  0  0  0
 17 18  1  0  0  0  0
 18 19  1  0  0  0  0
 18 60  1  0  0  0  0
 18 61  1  0  0  0  0
 19 20  1  0  0  0  0
 19 27  1  0  0  0  0
 19 49  1  1  0  0  0
 20 21  1  0  0  0  0
 20 62  1  0  0  0  0
 20 63  1  0  0  0  0
 21 22  1  0  0  0  0
 21 26  1  0  0  0  0
 21 64  1  0  0  0  0
 22 23  1  0  0  0  0
 22 65  1  0  0  0  0
 22 66  1  0  0  0  0
 23 24  1  0  0  0  0
 23 67  1  0  0  0  0
 23 68  1  0  0  0  0
 24 25  1  0  0  0  0
 24 69  1  0  0  0  0
 24 70  1  0  0  0  0
 25 26  1  0  0  0  0
 25 71  1  0  0  0  0
 25 72  1  0  0  0  0
 26 73  1  0  0  0  0
 26 74  1  0  0  0  0
 27 75  1  0  0  0  0
 28 29  2  0  0  0  0
 28 33  1  0  0  0  0
 29 30  1  0  0  0  0
 29 76  1  0  0  0  0
 30 31  2  0  0  0  0
 30 77  1  0  0  0  0
 31 32  1  0  0  0  0
 31 44  1  0  0  0  0
 32 33  2  0  0  0  0
 32 34  1  0  0  0  0
 33 78  1  0  0  0  0
 34 35  1  0  0  0  0
 35 36  1  0  0  0  0
 35 79  1  0  0  0  0
 35 80  1  0  0  0  0
 36 37  1  0  0  0  0
 36 81  1  0  0  0  0
 36 82  1  0  0  0  0
 37 38  1  0  0  0  0
 37 42  1  0  0  0  0
 37 83  1  6  0  0  0
 38 39  1  0  0  0  0
 38 84  1  0  0  0  0
 38 85  1  0  0  0  0
 39 40  1  0  0  0  0
 39 86  1  0  0  0  0
 39 87  1  0  0  0  0
 40 41  1  0  0  0  0
 40 43  1  0  0  0  0
 40 88  1  1  0  0  0
 41 42  1  0  0  0  0
 41 89  1  0  0  0  0
 41 90  1  0  0  0  0
 42 91  1  0  0  0  0
 42 92  1  0  0  0  0
 44 45  1  0  0  0  0
 44 46  1  0  0  0  0
 44 47  1  0  0  0  0
 48 93  1  0  0  0  0
 48 94  1  0  0  0  0
M  CHG  2  21   1  37   1
M  END
