CatS_354:1_D
 OpenBabel12041818463D

 87 92  0  0  0  0  0  0  0  0999 V2000
   43.3929   -9.4205   47.3683 C   0  0  0  0  0  0  0  0  0  0  0  0
   41.7776   -8.8212   47.9373 S   0  0  0  0  0  0  0  0  0  0  0  0
   41.9919   -7.8942   49.0003 O   0  0  0  0  0  0  0  0  0  0  0  0
   40.9634   -9.9582   48.2195 O   0  0  0  0  0  0  0  0  0  0  0  0
   41.0443   -8.0192   46.7201 N   0  0  0  0  0  0  0  0  0  0  0  0
   40.6256   -8.7687   45.5122 C   0  0  0  0  0  0  0  0  0  0  0  0
   39.6555   -7.9518   44.6226 C   0  0  0  0  0  0  0  0  0  0  0  0
   40.2269   -6.5728   44.3502 C   0  0  0  0  0  0  0  0  0  0  0  0
   41.1918   -6.0595   45.1147 C   0  0  0  0  0  0  0  0  0  0  0  0
   41.4577   -4.8061   44.5196 C   0  0  0  0  0  0  0  0  0  0  0  0
   40.6453   -4.6527   43.4959 N   0  0  0  0  0  0  0  0  0  0  0  0
   39.8526   -5.7407   43.3456 N   0  0  0  0  0  0  0  0  0  0  0  0
   38.8908   -5.9403   42.2506 C   0  0  0  0  0  0  0  0  0  0  0  0
   39.2185   -7.0765   41.2626 C   0  0  0  0  0  0  0  0  0  0  0  0
   38.4849   -6.8640   39.9220 C   0  0  0  0  0  0  0  0  0  0  0  0
   37.0416   -6.4626   40.0952 N   0  3  0  0  0  0  0  0  0  0  0  0
   36.7552   -5.1082   39.4958 C   0  0  0  0  0  0  0  0  0  0  0  0
   36.6874   -5.2207   37.9606 C   0  0  0  0  0  0  0  0  0  0  0  0
   35.7135   -6.2064   37.5687 O   0  0  0  0  0  0  0  0  0  0  0  0
   36.0291   -7.5189   38.0702 C   0  0  0  0  0  0  0  0  0  0  0  0
   36.0768   -7.5170   39.6103 C   0  0  0  0  0  0  0  0  0  0  0  0
   42.4521   -3.8149   44.8870 C   0  0  0  0  0  0  0  0  0  0  0  0
   42.6555   -3.5138   46.2283 C   0  0  0  0  0  0  0  0  0  0  0  0
   43.6139   -2.5954   46.6004 C   0  0  0  0  0  0  0  0  0  0  0  0
   44.3713   -1.9652   45.6450 C   0  0  0  0  0  0  0  0  0  0  0  0
   44.1770   -2.2570   44.2957 C   0  0  0  0  0  0  0  0  0  0  0  0
   43.2128   -3.1864   43.9206 C   0  0  0  0  0  0  0  0  0  0  0  0
   45.0224   -1.5495   43.3683 C   0  0  0  0  0  0  0  0  0  0  0  0
   45.7083   -1.0757   42.4772 C   0  0  0  0  0  0  0  0  0  0  0  0
   46.4671   -0.6936   41.3152 C   0  0  0  0  0  0  0  0  0  0  0  0
   46.8502    0.5949   40.9630 C   0  0  0  0  0  0  0  0  0  0  0  0
   47.6542    0.7689   39.8620 C   0  0  0  0  0  0  0  0  0  0  0  0
   48.0830   -0.3163   39.1184 C   0  0  0  0  0  0  0  0  0  0  0  0
   47.6969   -1.6000   39.4539 C   0  0  0  0  0  0  0  0  0  0  0  0
   46.8733   -1.7638   40.5344 C   0  0  0  0  0  0  0  0  0  0  0  0
   48.1346   -2.8301   38.6597 C   0  0  0  0  0  0  0  0  0  0  0  0
   49.2574   -2.6271   37.6613 N   0  3  0  0  0  0  0  0  0  0  0  0
   50.4753   -3.5042   37.8323 C   0  0  0  0  0  0  0  0  0  0  0  0
   50.5327   -4.7154   36.9217 C   0  0  0  0  0  0  0  0  0  0  0  0
   51.3427   -4.6045   35.8166 C   0  0  0  0  0  0  0  0  0  0  0  0
   51.4498   -5.6654   34.9583 C   0  0  0  0  0  0  0  0  0  0  0  0
   50.7420   -6.8039   35.2376 C   0  0  0  0  0  0  0  0  0  0  0  0
   49.9519   -6.8447   36.3620 C   0  0  0  0  0  0  0  0  0  0  0  0
   49.8233   -5.8187   37.2267 N   0  0  0  0  0  0  0  0  0  0  0  0
   45.5750   -0.7952   46.1237 Cl  0  0  0  0  0  0  0  0  0  0  0  0
   41.7796   -6.7973   46.3101 C   0  0  0  0  0  0  0  0  0  0  0  0
   43.5256   -9.1446   46.4163 H   0  0  0  0  0  0  0  0  0  0  0  0
   44.1174   -9.0299   47.9363 H   0  0  0  0  0  0  0  0  0  0  0  0
   43.4260  -10.4175   47.4387 H   0  0  0  0  0  0  0  0  0  0  0  0
   40.1716   -9.6131   45.7968 H   0  0  0  0  0  0  0  0  0  0  0  0
   41.4448   -8.9627   44.9725 H   0  0  0  0  0  0  0  0  0  0  0  0
   38.7753   -7.8610   45.0883 H   0  0  0  0  0  0  0  0  0  0  0  0
   39.5316   -8.4291   43.7526 H   0  0  0  0  0  0  0  0  0  0  0  0
   38.8344   -5.0873   41.7318 H   0  0  0  0  0  0  0  0  0  0  0  0
   38.0332   -6.2065   42.6905 H   0  0  0  0  0  0  0  0  0  0  0  0
   38.9358   -7.9499   41.6592 H   0  0  0  0  0  0  0  0  0  0  0  0
   40.2037   -7.0783   41.0910 H   0  0  0  0  0  0  0  0  0  0  0  0
   38.5205   -7.7159   39.3995 H   0  0  0  0  0  0  0  0  0  0  0  0
   38.9461   -6.1158   39.4450 H   0  0  0  0  0  0  0  0  0  0  0  0
   36.9019   -6.3739   40.9924 H   0  0  0  0  0  0  0  0  0  0  0  0
   37.4807   -4.4697   39.7528 H   0  0  0  0  0  0  0  0  0  0  0  0
   35.8781   -4.7737   39.8403 H   0  0  0  0  0  0  0  0  0  0  0  0
   37.5855   -5.4839   37.6086 H   0  0  0  0  0  0  0  0  0  0  0  0
   36.4180   -4.3345   37.5836 H   0  0  0  0  0  0  0  0  0  0  0  0
   36.9185   -7.8034   37.7122 H   0  0  0  0  0  0  0  0  0  0  0  0
   35.3181   -8.1560   37.7726 H   0  0  0  0  0  0  0  0  0  0  0  0
   35.1646   -7.3250   39.9722 H   0  0  0  0  0  0  0  0  0  0  0  0
   36.3833   -8.4139   39.9293 H   0  0  0  0  0  0  0  0  0  0  0  0
   42.1029   -3.9663   46.9283 H   0  0  0  0  0  0  0  0  0  0  0  0
   43.7576   -2.3881   47.5681 H   0  0  0  0  0  0  0  0  0  0  0  0
   43.0708   -3.3991   42.9538 H   0  0  0  0  0  0  0  0  0  0  0  0
   46.5464    1.3813   41.5007 H   0  0  0  0  0  0  0  0  0  0  0  0
   47.9329    1.6914   39.5951 H   0  0  0  0  0  0  0  0  0  0  0  0
   48.6793   -0.1699   38.3290 H   0  0  0  0  0  0  0  0  0  0  0  0
   46.5553   -2.6829   40.7674 H   0  0  0  0  0  0  0  0  0  0  0  0
   47.3379   -3.1696   38.1596 H   0  0  0  0  0  0  0  0  0  0  0  0
   48.4987   -3.4673   39.3390 H   0  0  0  0  0  0  0  0  0  0  0  0
   48.9165   -2.7726   36.8289 H   0  0  0  0  0  0  0  0  0  0  0  0
   49.5034   -1.7503   37.6461 H   0  0  0  0  0  0  0  0  0  0  0  0
   50.4965   -3.8249   38.7792 H   0  0  0  0  0  0  0  0  0  0  0  0
   51.2616   -2.9372   37.5869 H   0  0  0  0  0  0  0  0  0  0  0  0
   51.8475   -3.7591   35.6419 H   0  0  0  0  0  0  0  0  0  0  0  0
   52.0312   -5.6104   34.1465 H   0  0  0  0  0  0  0  0  0  0  0  0
   50.7991   -7.5965   34.6306 H   0  0  0  0  0  0  0  0  0  0  0  0
   49.4428   -7.6848   36.5491 H   0  0  0  0  0  0  0  0  0  0  0  0
   42.7177   -7.0600   46.0843 H   0  0  0  0  0  0  0  0  0  0  0  0
   41.7201   -6.1648   47.0824 H   0  0  0  0  0  0  0  0  0  0  0  0
  1  2  1  0  0  0  0
  1 47  1  0  0  0  0
  1 48  1  0  0  0  0
  1 49  1  0  0  0  0
  2  3  2  0  0  0  0
  2  4  2  0  0  0  0
  2  5  1  0  0  0  0
  5  6  1  0  0  0  0
  5 46  1  0  0  0  0
  6  7  1  0  0  0  0
  6 50  1  0  0  0  0
  6 51  1  0  0  0  0
  7  8  1  0  0  0  0
  7 52  1  0  0  0  0
  7 53  1  0  0  0  0
  8  9  2  0  0  0  0
  8 12  1  0  0  0  0
  9 10  1  0  0  0  0
  9 46  1  0  0  0  0
 10 11  2  0  0  0  0
 10 22  1  0  0  0  0
 11 12  1  0  0  0  0
 12 13  1  0  0  0  0
 13 14  1  0  0  0  0
 13 54  1  0  0  0  0
 13 55  1  0  0  0  0
 14 15  1  0  0  0  0
 14 56  1  0  0  0  0
 14 57  1  0  0  0  0
 15 16  1  0  0  0  0
 15 58  1  0  0  0  0
 15 59  1  0  0  0  0
 16 17  1  0  0  0  0
 16 21  1  0  0  0  0
 16 60  1  0  0  0  0
 17 18  1  0  0  0  0
 17 61  1  0  0  0  0
 17 62  1  0  0  0  0
 18 19  1  0  0  0  0
 18 63  1  0  0  0  0
 18 64  1  0  0  0  0
 19 20  1  0  0  0  0
 20 21  1  0  0  0  0
 20 65  1  0  0  0  0
 20 66  1  0  0  0  0
 21 67  1  0  0  0  0
 21 68  1  0  0  0  0
 22 23  2  0  0  0  0
 22 27  1  0  0  0  0
 23 24  1  0  0  0  0
 23 69  1  0  0  0  0
 24 25  2  0  0  0  0
 24 70  1  0  0  0  0
 25 26  1  0  0  0  0
 25 45  1  0  0  0  0
 26 27  2  0  0  0  0
 26 28  1  0  0  0  0
 27 71  1  0  0  0  0
 28 29  3  0  0  0  0
 29 30  1  0  0  0  0
 30 31  2  0  0  0  0
 30 35  1  0  0  0  0
 31 32  1  0  0  0  0
 31 72  1  0  0  0  0
 32 33  2  0  0  0  0
 32 73  1  0  0  0  0
 33 34  1  0  0  0  0
 33 74  1  0  0  0  0
 34 35  2  0  0  0  0
 34 36  1  0  0  0  0
 35 75  1  0  0  0  0
 36 37  1  0  0  0  0
 36 76  1  0  0  0  0
 36 77  1  0  0  0  0
 37 38  1  0  0  0  0
 37 78  1  0  0  0  0
 37 79  1  0  0  0  0
 38 39  1  0  0  0  0
 38 80  1  0  0  0  0
 38 81  1  0  0  0  0
 39 40  2  0  0  0  0
 39 44  1  0  0  0  0
 40 41  1  0  0  0  0
 40 82  1  0  0  0  0
 41 42  2  0  0  0  0
 41 83  1  0  0  0  0
 42 43  1  0  0  0  0
 42 84  1  0  0  0  0
 43 44  2  0  0  0  0
 43 85  1  0  0  0  0
 46 86  1  0  0  0  0
 46 87  1  0  0  0  0
M  CHG  2  16   1  37   1
M  END
