CatS_315:1_D
 OpenBabel12041818463D

 82 86  0  0  0  0  0  0  0  0999 V2000
   42.2786   -7.8250   48.7651 C   0  0  0  0  0  0  0  0  0  0  0  0
   42.6899   -8.6196   47.1875 S   0  0  0  0  0  0  0  0  0  0  0  0
   44.0893   -8.4573   46.9548 O   0  0  0  0  0  0  0  0  0  0  0  0
   42.1568   -9.9425   47.2163 O   0  0  0  0  0  0  0  0  0  0  0  0
   41.9079   -7.8514   45.9873 N   0  0  0  0  0  0  0  0  0  0  0  0
   40.4316   -7.9361   45.9921 C   0  0  0  0  0  0  0  0  0  0  0  0
   39.8185   -7.4730   44.6538 C   0  0  0  0  0  0  0  0  0  0  0  0
   40.3620   -6.1070   44.2857 C   0  0  0  0  0  0  0  0  0  0  0  0
   41.4909   -5.6390   44.8151 C   0  0  0  0  0  0  0  0  0  0  0  0
   41.6093   -4.3495   44.2488 C   0  0  0  0  0  0  0  0  0  0  0  0
   40.5838   -4.1457   43.4464 N   0  0  0  0  0  0  0  0  0  0  0  0
   39.7747   -5.2323   43.4333 N   0  0  0  0  0  0  0  0  0  0  0  0
   38.5054   -5.3453   42.7017 C   0  0  0  0  0  0  0  0  0  0  0  0
   38.2901   -4.3376   41.5597 C   0  0  0  0  0  0  0  0  0  0  0  0
   37.1903   -4.8129   40.5818 C   0  0  0  0  0  0  0  0  0  0  0  0
   37.7230   -5.4490   39.3183 N   0  3  0  0  0  0  0  0  0  0  0  0
   38.4161   -6.7641   39.5690 C   0  0  0  0  0  0  0  0  0  0  0  0
   37.3581   -7.8362   39.8950 C   0  0  0  0  0  0  0  0  0  0  0  0
   36.4088   -7.9438   38.8165 O   0  0  0  0  0  0  0  0  0  0  0  0
   35.7033   -6.7099   38.5798 C   0  0  0  0  0  0  0  0  0  0  0  0
   36.6826   -5.5690   38.2331 C   0  0  0  0  0  0  0  0  0  0  0  0
   42.6576   -3.3738   44.4874 C   0  0  0  0  0  0  0  0  0  0  0  0
   42.5162   -2.4532   45.5165 C   0  0  0  0  0  0  0  0  0  0  0  0
   43.4943   -1.5139   45.7526 C   0  0  0  0  0  0  0  0  0  0  0  0
   44.6214   -1.4787   44.9683 C   0  0  0  0  0  0  0  0  0  0  0  0
   44.7788   -2.3933   43.9308 C   0  0  0  0  0  0  0  0  0  0  0  0
   43.7931   -3.3466   43.6997 C   0  0  0  0  0  0  0  0  0  0  0  0
   45.9664   -2.2821   43.1225 C   0  0  0  0  0  0  0  0  0  0  0  0
   46.9242   -2.2231   42.3686 C   0  0  0  0  0  0  0  0  0  0  0  0
   47.9998   -2.1825   41.4109 C   0  0  0  0  0  0  0  0  0  0  0  0
   49.3095   -2.5122   41.7458 C   0  0  0  0  0  0  0  0  0  0  0  0
   50.2920   -2.4572   40.7882 C   0  0  0  0  0  0  0  0  0  0  0  0
   49.9898   -2.0786   39.4944 C   0  0  0  0  0  0  0  0  0  0  0  0
   48.6916   -1.7536   39.1590 C   0  0  0  0  0  0  0  0  0  0  0  0
   47.7024   -1.8023   40.1063 C   0  0  0  0  0  0  0  0  0  0  0  0
   51.0806   -2.0070   38.4383 C   0  0  0  0  0  0  0  0  0  0  0  0
   50.5217   -2.2857   37.0668 N   0  3  0  0  0  0  0  0  0  0  0  0
   51.4808   -2.9316   36.1037 C   0  0  0  0  0  0  0  0  0  0  0  0
   52.4152   -1.8922   35.4575 C   0  0  0  0  0  0  0  0  0  0  0  0
   53.5521   -2.5224   34.8501 O   0  0  0  0  0  0  0  0  0  0  0  0
   45.8544   -0.2849   45.2603 Cl  0  0  0  0  0  0  0  0  0  0  0  0
   42.3156   -6.4335   45.8216 C   0  0  0  0  0  0  0  0  0  0  0  0
   41.6496   -7.0668   48.5934 H   0  0  0  0  0  0  0  0  0  0  0  0
   41.8469   -8.4892   49.3754 H   0  0  0  0  0  0  0  0  0  0  0  0
   43.1126   -7.4809   49.1962 H   0  0  0  0  0  0  0  0  0  0  0  0
   40.0767   -7.3600   46.7285 H   0  0  0  0  0  0  0  0  0  0  0  0
   40.1790   -8.8938   46.1297 H   0  0  0  0  0  0  0  0  0  0  0  0
   38.8236   -7.4247   44.7416 H   0  0  0  0  0  0  0  0  0  0  0  0
   40.0592   -8.1270   43.9365 H   0  0  0  0  0  0  0  0  0  0  0  0
   37.7609   -5.2292   43.3591 H   0  0  0  0  0  0  0  0  0  0  0  0
   38.5272   -6.2442   42.2640 H   0  0  0  0  0  0  0  0  0  0  0  0
   39.1478   -4.2253   41.0579 H   0  0  0  0  0  0  0  0  0  0  0  0
   37.9975   -3.4692   41.9598 H   0  0  0  0  0  0  0  0  0  0  0  0
   36.6313   -4.0236   40.3277 H   0  0  0  0  0  0  0  0  0  0  0  0
   36.6645   -5.5172   41.0587 H   0  0  0  0  0  0  0  0  0  0  0  0
   38.3546   -4.8815   38.9893 H   0  0  0  0  0  0  0  0  0  0  0  0
   39.0491   -6.6698   40.3374 H   0  0  0  0  0  0  0  0  0  0  0  0
   38.9296   -7.0352   38.7549 H   0  0  0  0  0  0  0  0  0  0  0  0
   36.8792   -7.5846   40.7360 H   0  0  0  0  0  0  0  0  0  0  0  0
   37.8142   -8.7180   40.0153 H   0  0  0  0  0  0  0  0  0  0  0  0
   35.1881   -6.4637   39.4006 H   0  0  0  0  0  0  0  0  0  0  0  0
   35.0836   -6.8416   37.8059 H   0  0  0  0  0  0  0  0  0  0  0  0
   37.1305   -5.7648   37.3607 H   0  0  0  0  0  0  0  0  0  0  0  0
   36.1771   -4.7092   38.1610 H   0  0  0  0  0  0  0  0  0  0  0  0
   41.6977   -2.4725   46.0906 H   0  0  0  0  0  0  0  0  0  0  0  0
   43.3841   -0.8555   46.4971 H   0  0  0  0  0  0  0  0  0  0  0  0
   43.9060   -4.0132   42.9628 H   0  0  0  0  0  0  0  0  0  0  0  0
   49.5343   -2.7883   42.6801 H   0  0  0  0  0  0  0  0  0  0  0  0
   51.2335   -2.6929   41.0292 H   0  0  0  0  0  0  0  0  0  0  0  0
   48.4718   -1.4816   38.2222 H   0  0  0  0  0  0  0  0  0  0  0  0
   46.7635   -1.5638   39.8587 H   0  0  0  0  0  0  0  0  0  0  0  0
   51.7877   -2.6818   38.6497 H   0  0  0  0  0  0  0  0  0  0  0  0
   51.4683   -1.0852   38.4423 H   0  0  0  0  0  0  0  0  0  0  0  0
   49.7862   -2.8168   37.1562 H   0  0  0  0  0  0  0  0  0  0  0  0
   50.1934   -1.5208   36.6969 H   0  0  0  0  0  0  0  0  0  0  0  0
   50.9607   -3.3954   35.3864 H   0  0  0  0  0  0  0  0  0  0  0  0
   52.0427   -3.5852   36.6107 H   0  0  0  0  0  0  0  0  0  0  0  0
   52.7298   -1.2533   36.1595 H   0  0  0  0  0  0  0  0  0  0  0  0
   51.9058   -1.4080   34.7461 H   0  0  0  0  0  0  0  0  0  0  0  0
   53.4091   -2.6670   33.8649 H   0  0  0  0  0  0  0  0  0  0  0  0
   43.2707   -6.4165   45.5259 H   0  0  0  0  0  0  0  0  0  0  0  0
   42.1689   -5.9955   46.7085 H   0  0  0  0  0  0  0  0  0  0  0  0
  1  2  1  0  0  0  0
  1 43  1  0  0  0  0
  1 44  1  0  0  0  0
  1 45  1  0  0  0  0
  2  3  2  0  0  0  0
  2  4  2  0  0  0  0
  2  5  1  0  0  0  0
  5  6  1  0  0  0  0
  5 42  1  0  0  0  0
  6  7  1  0  0  0  0
  6 46  1  0  0  0  0
  6 47  1  0  0  0  0
  7  8  1  0  0  0  0
  7 48  1  0  0  0  0
  7 49  1  0  0  0  0
  8  9  2  0  0  0  0
  8 12  1  0  0  0  0
  9 10  1  0  0  0  0
  9 42  1  0  0  0  0
 10 11  2  0  0  0  0
 10 22  1  0  0  0  0
 11 12  1  0  0  0  0
 12 13  1  0  0  0  0
 13 14  1  0  0  0  0
 13 50  1  0  0  0  0
 13 51  1  0  0  0  0
 14 15  1  0  0  0  0
 14 52  1  0  0  0  0
 14 53  1  0  0  0  0
 15 16  1  0  0  0  0
 15 54  1  0  0  0  0
 15 55  1  0  0  0  0
 16 17  1  0  0  0  0
 16 21  1  0  0  0  0
 16 56  1  0  0  0  0
 17 18  1  0  0  0  0
 17 57  1  0  0  0  0
 17 58  1  0  0  0  0
 18 19  1  0  0  0  0
 18 59  1  0  0  0  0
 18 60  1  0  0  0  0
 19 20  1  0  0  0  0
 20 21  1  0  0  0  0
 20 61  1  0  0  0  0
 20 62  1  0  0  0  0
 21 63  1  0  0  0  0
 21 64  1  0  0  0  0
 22 23  2  0  0  0  0
 22 27  1  0  0  0  0
 23 24  1  0  0  0  0
 23 65  1  0  0  0  0
 24 25  2  0  0  0  0
 24 66  1  0  0  0  0
 25 26  1  0  0  0  0
 25 41  1  0  0  0  0
 26 27  2  0  0  0  0
 26 28  1  0  0  0  0
 27 67  1  0  0  0  0
 28 29  3  0  0  0  0
 29 30  1  0  0  0  0
 30 31  2  0  0  0  0
 30 35  1  0  0  0  0
 31 32  1  0  0  0  0
 31 68  1  0  0  0  0
 32 33  2  0  0  0  0
 32 69  1  0  0  0  0
 33 34  1  0  0  0  0
 33 36  1  0  0  0  0
 34 35  2  0  0  0  0
 34 70  1  0  0  0  0
 35 71  1  0  0  0  0
 36 37  1  0  0  0  0
 36 72  1  0  0  0  0
 36 73  1  0  0  0  0
 37 38  1  0  0  0  0
 37 74  1  0  0  0  0
 37 75  1  0  0  0  0
 38 39  1  0  0  0  0
 38 76  1  0  0  0  0
 38 77  1  0  0  0  0
 39 40  1  0  0  0  0
 39 78  1  0  0  0  0
 39 79  1  0  0  0  0
 40 80  1  0  0  0  0
 42 81  1  0  0  0  0
 42 82  1  0  0  0  0
M  CHG  2  16   1  37   1
M  END
