CatS_65:1_D
 OpenBabel12041818463D

 92 97  0  0  1  0  0  0  0  0999 V2000
   43.4300   -8.7885   48.1945 C   0  0  0  0  0  0  0  0  0  0  0  0
   42.0688   -7.6302   48.4689 S   0  0  0  0  0  0  0  0  0  0  0  0
   42.5827   -6.5275   49.2187 O   0  0  0  0  0  0  0  0  0  0  0  0
   40.9951   -8.3296   49.0981 O   0  0  0  0  0  0  0  0  0  0  0  0
   41.5379   -7.0471   47.0397 N   0  0  0  0  0  0  0  0  0  0  0  0
   41.0014   -8.0956   46.1517 C   0  0  0  0  0  0  0  0  0  0  0  0
   40.0686   -7.5187   45.0610 C   0  0  0  0  0  0  0  0  0  0  0  0
   40.6291   -6.2521   44.4361 C   0  0  0  0  0  0  0  0  0  0  0  0
   41.6844   -5.6304   44.9692 C   0  0  0  0  0  0  0  0  0  0  0  0
   41.8864   -4.5239   44.1076 C   0  0  0  0  0  0  0  0  0  0  0  0
   40.9567   -4.5478   43.1794 N   0  0  0  0  0  0  0  0  0  0  0  0
   40.1448   -5.6208   43.3309 N   0  0  0  0  0  0  0  0  0  0  0  0
   38.9858   -5.8860   42.4621 C   0  0  0  0  0  0  0  0  0  0  0  0
   39.0778   -6.5806   41.0895 C   0  0  0  0  0  0  0  0  0  0  0  0
   37.8769   -7.5404   40.9643 C   0  0  0  0  0  0  0  0  0  0  0  0
   36.7735   -7.0519   40.0626 N   0  3  0  0  0  0  0  0  0  0  0  0
   36.1890   -5.7270   40.4877 C   0  0  0  0  0  0  0  0  0  0  0  0
   35.1002   -5.2869   39.4905 C   0  0  0  0  0  0  0  0  0  0  0  0
   35.6236   -5.2579   38.1495 O   0  0  0  0  0  0  0  0  0  0  0  0
   36.0790   -6.5516   37.7122 C   0  0  0  0  0  0  0  0  0  0  0  0
   37.2175   -7.0511   38.6208 C   0  0  0  0  0  0  0  0  0  0  0  0
   42.9333   -3.5165   44.1243 C   0  0  0  0  0  0  0  0  0  0  0  0
   43.0741   -2.7651   45.2821 C   0  0  0  0  0  0  0  0  0  0  0  0
   44.0757   -1.8329   45.3938 C   0  0  0  0  0  0  0  0  0  0  0  0
   44.9268   -1.6249   44.3397 C   0  0  0  0  0  0  0  0  0  0  0  0
   44.7989   -2.3467   43.1543 C   0  0  0  0  0  0  0  0  0  0  0  0
   43.7959   -3.3114   43.0586 C   0  0  0  0  0  0  0  0  0  0  0  0
   45.7695   -1.9768   42.1499 C   0  0  0  0  0  0  0  0  0  0  0  0
   46.6352   -1.8910   41.2851 C   0  0  0  0  0  0  0  0  0  0  0  0
   47.6713   -2.0531   40.2909 C   0  0  0  0  0  0  0  0  0  0  0  0
   47.4057   -3.0655   39.3774 C   0  0  0  0  0  0  0  0  0  0  0  0
   48.2947   -3.3649   38.3848 C   0  0  0  0  0  0  0  0  0  0  0  0
   49.4773   -2.6703   38.2663 C   0  0  0  0  0  0  0  0  0  0  0  0
   49.7548   -1.6504   39.1614 C   0  0  0  0  0  0  0  0  0  0  0  0
   48.8639   -1.3381   40.1681 C   0  0  0  0  0  0  0  0  0  0  0  0
   50.3257   -3.1931   37.1154 C   0  0  0  0  0  0  0  0  0  0  0  0
   50.6742   -2.2739   35.9730 N   0  3  0  0  0  0  0  0  0  0  0  0
   52.1570   -2.2094   35.6664 C   0  0  2  0  0  0  0  0  0  0  0  0
   52.8185   -3.6083   35.6991 C   0  0  0  0  0  0  0  0  0  0  0  0
   52.5796   -4.3322   34.4816 O   0  0  0  0  0  0  0  0  0  0  0  0
   52.9208   -1.2102   36.5326 C   0  0  0  0  0  0  0  0  0  0  0  0
   52.9517    0.1080   36.1294 C   0  0  0  0  0  0  0  0  0  0  0  0
   53.6492    1.0468   36.8540 C   0  0  0  0  0  0  0  0  0  0  0  0
   54.3232    0.6721   37.9930 C   0  0  0  0  0  0  0  0  0  0  0  0
   54.2966   -0.6413   38.4039 C   0  0  0  0  0  0  0  0  0  0  0  0
   53.5985   -1.5792   37.6758 C   0  0  0  0  0  0  0  0  0  0  0  0
   46.1864   -0.4355   44.4899 Cl  0  0  0  0  0  0  0  0  0  0  0  0
   42.3827   -6.1293   46.2348 C   0  0  0  0  0  0  0  0  0  0  0  0
   52.2173   -1.8634   34.7300 H   0  0  0  0  0  0  0  0  0  0  0  0
   43.6060   -8.8573   47.2125 H   0  0  0  0  0  0  0  0  0  0  0  0
   44.2514   -8.4614   48.6617 H   0  0  0  0  0  0  0  0  0  0  0  0
   43.1854   -9.6876   48.5574 H   0  0  0  0  0  0  0  0  0  0  0  0
   40.4881   -8.7539   46.7023 H   0  0  0  0  0  0  0  0  0  0  0  0
   41.7744   -8.5326   45.6920 H   0  0  0  0  0  0  0  0  0  0  0  0
   39.1804   -7.3122   45.4714 H   0  0  0  0  0  0  0  0  0  0  0  0
   39.9826   -8.2038   44.3377 H   0  0  0  0  0  0  0  0  0  0  0  0
   38.5657   -4.9951   42.2897 H   0  0  0  0  0  0  0  0  0  0  0  0
   38.5061   -6.5837   42.9941 H   0  0  0  0  0  0  0  0  0  0  0  0
   39.9341   -7.0926   41.0224 H   0  0  0  0  0  0  0  0  0  0  0  0
   39.0599   -5.9033   40.3540 H   0  0  0  0  0  0  0  0  0  0  0  0
   37.4956   -7.6853   41.8773 H   0  0  0  0  0  0  0  0  0  0  0  0
   38.2281   -8.3800   40.5500 H   0  0  0  0  0  0  0  0  0  0  0  0
   36.1001   -7.6634   40.1259 H   0  0  0  0  0  0  0  0  0  0  0  0
   36.9132   -5.0380   40.5167 H   0  0  0  0  0  0  0  0  0  0  0  0
   35.7809   -5.8247   41.3954 H   0  0  0  0  0  0  0  0  0  0  0  0
   34.7744   -4.3746   39.7387 H   0  0  0  0  0  0  0  0  0  0  0  0
   34.3458   -5.9423   39.5268 H   0  0  0  0  0  0  0  0  0  0  0  0
   36.4094   -6.4861   36.7706 H   0  0  0  0  0  0  0  0  0  0  0  0
   35.3177   -7.1983   37.7603 H   0  0  0  0  0  0  0  0  0  0  0  0
   37.4741   -7.9796   38.3524 H   0  0  0  0  0  0  0  0  0  0  0  0
   38.0029   -6.4398   38.5225 H   0  0  0  0  0  0  0  0  0  0  0  0
   42.4398   -2.9038   46.0427 H   0  0  0  0  0  0  0  0  0  0  0  0
   44.1838   -1.3091   46.2387 H   0  0  0  0  0  0  0  0  0  0  0  0
   43.6993   -3.8534   42.2238 H   0  0  0  0  0  0  0  0  0  0  0  0
   46.5522   -3.5819   39.4473 H   0  0  0  0  0  0  0  0  0  0  0  0
   48.0843   -4.0970   37.7369 H   0  0  0  0  0  0  0  0  0  0  0  0
   50.6080   -1.1357   39.0774 H   0  0  0  0  0  0  0  0  0  0  0  0
   49.0727   -0.5998   40.8094 H   0  0  0  0  0  0  0  0  0  0  0  0
   49.8386   -3.9742   36.7250 H   0  0  0  0  0  0  0  0  0  0  0  0
   51.2104   -3.3801   37.5424 H   0  0  0  0  0  0  0  0  0  0  0  0
   50.2216   -2.5450   35.2305 H   0  0  0  0  0  0  0  0  0  0  0  0
   50.3518   -1.4388   36.1410 H   0  0  0  0  0  0  0  0  0  0  0  0
   52.4452   -4.1280   36.4676 H   0  0  0  0  0  0  0  0  0  0  0  0
   53.8057   -3.4861   35.8013 H   0  0  0  0  0  0  0  0  0  0  0  0
   52.7753   -3.7651   33.6741 H   0  0  0  0  0  0  0  0  0  0  0  0
   52.4624    0.3843   35.3022 H   0  0  0  0  0  0  0  0  0  0  0  0
   53.6661    2.0002   36.5528 H   0  0  0  0  0  0  0  0  0  0  0  0
   54.8313    1.3523   38.5214 H   0  0  0  0  0  0  0  0  0  0  0  0
   54.7850   -0.9151   39.2324 H   0  0  0  0  0  0  0  0  0  0  0  0
   53.5830   -2.5325   37.9776 H   0  0  0  0  0  0  0  0  0  0  0  0
   43.2184   -6.6113   45.9717 H   0  0  0  0  0  0  0  0  0  0  0  0
   42.5791   -5.3293   46.8017 H   0  0  0  0  0  0  0  0  0  0  0  0
  1  2  1  0  0  0  0
  1 50  1  0  0  0  0
  1 51  1  0  0  0  0
  1 52  1  0  0  0  0
  2  3  2  0  0  0  0
  2  4  2  0  0  0  0
  2  5  1  0  0  0  0
  5  6  1  0  0  0  0
  5 48  1  0  0  0  0
  6  7  1  0  0  0  0
  6 53  1  0  0  0  0
  6 54  1  0  0  0  0
  7  8  1  0  0  0  0
  7 55  1  0  0  0  0
  7 56  1  0  0  0  0
  8  9  2  0  0  0  0
  8 12  1  0  0  0  0
  9 10  1  0  0  0  0
  9 48  1  0  0  0  0
 10 11  2  0  0  0  0
 10 22  1  0  0  0  0
 11 12  1  0  0  0  0
 12 13  1  0  0  0  0
 13 14  1  0  0  0  0
 13 57  1  0  0  0  0
 13 58  1  0  0  0  0
 14 15  1  0  0  0  0
 14 59  1  0  0  0  0
 14 60  1  0  0  0  0
 15 16  1  0  0  0  0
 15 61  1  0  0  0  0
 15 62  1  0  0  0  0
 16 17  1  0  0  0  0
 16 21  1  0  0  0  0
 16 63  1  0  0  0  0
 17 18  1  0  0  0  0
 17 64  1  0  0  0  0
 17 65  1  0  0  0  0
 18 19  1  0  0  0  0
 18 66  1  0  0  0  0
 18 67  1  0  0  0  0
 19 20  1  0  0  0  0
 20 21  1  0  0  0  0
 20 68  1  0  0  0  0
 20 69  1  0  0  0  0
 21 70  1  0  0  0  0
 21 71  1  0  0  0  0
 22 23  2  0  0  0  0
 22 27  1  0  0  0  0
 23 24  1  0  0  0  0
 23 72  1  0  0  0  0
 24 25  2  0  0  0  0
 24 73  1  0  0  0  0
 25 26  1  0  0  0  0
 25 47  1  0  0  0  0
 26 27  2  0  0  0  0
 26 28  1  0  0  0  0
 27 74  1  0  0  0  0
 28 29  3  0  0  0  0
 29 30  1  0  0  0  0
 30 31  2  0  0  0  0
 30 35  1  0  0  0  0
 31 32  1  0  0  0  0
 31 75  1  0  0  0  0
 32 33  2  0  0  0  0
 32 76  1  0  0  0  0
 33 34  1  0  0  0  0
 33 36  1  0  0  0  0
 34 35  2  0  0  0  0
 34 77  1  0  0  0  0
 35 78  1  0  0  0  0
 36 37  1  0  0  0  0
 36 79  1  0  0  0  0
 36 80  1  0  0  0  0
 37 38  1  0  0  0  0
 37 81  1  0  0  0  0
 37 82  1  0  0  0  0
 38 39  1  0  0  0  0
 38 41  1  0  0  0  0
 38 49  1  6  0  0  0
 39 40  1  0  0  0  0
 39 83  1  0  0  0  0
 39 84  1  0  0  0  0
 40 85  1  0  0  0  0
 41 42  2  0  0  0  0
 41 46  1  0  0  0  0
 42 43  1  0  0  0  0
 42 86  1  0  0  0  0
 43 44  2  0  0  0  0
 43 87  1  0  0  0  0
 44 45  1  0  0  0  0
 44 88  1  0  0  0  0
 45 46  2  0  0  0  0
 45 89  1  0  0  0  0
 46 90  1  0  0  0  0
 48 91  1  0  0  0  0
 48 92  1  0  0  0  0
M  CHG  2  16   1  37   1
M  END
