CatS_119:1_D
 OpenBabel12041818463D

 95100  0  0  1  0  0  0  0  0999 V2000
   40.2012  -10.6766   45.3471 C   0  0  0  0  0  0  0  0  0  0  0  0
   39.5343   -9.3789   46.4267 S   0  0  0  0  0  0  0  0  0  0  0  0
   38.1222   -9.3252   46.2502 O   0  0  0  0  0  0  0  0  0  0  0  0
   39.9565   -9.6514   47.7618 O   0  0  0  0  0  0  0  0  0  0  0  0
   40.1519   -7.9337   45.9807 N   0  0  0  0  0  0  0  0  0  0  0  0
   41.6087   -7.7262   46.1321 C   0  0  0  0  0  0  0  0  0  0  0  0
   42.0066   -6.2359   45.9902 C   0  0  0  0  0  0  0  0  0  0  0  0
   41.2909   -5.5324   44.8508 C   0  0  0  0  0  0  0  0  0  0  0  0
   40.2745   -6.1333   44.2302 C   0  0  0  0  0  0  0  0  0  0  0  0
   39.8920   -5.2087   43.2370 C   0  0  0  0  0  0  0  0  0  0  0  0
   40.6519   -4.1414   43.3569 N   0  0  0  0  0  0  0  0  0  0  0  0
   41.5692   -4.2976   44.3451 N   0  0  0  0  0  0  0  0  0  0  0  0
   42.6963   -3.3680   44.5512 C   0  0  0  0  0  0  0  0  0  0  0  0
   44.1267   -3.4604   43.9697 C   0  0  1  0  0  0  0  0  0  0  0  0
   44.9651   -2.1990   44.2705 C   0  0  0  0  0  0  0  0  0  0  0  0
   45.8602   -1.7480   43.1463 N   0  3  0  0  0  0  0  0  0  0  0  0
   45.2445   -2.0954   41.8126 C   0  0  0  0  0  0  0  0  0  0  0  0
   46.1716   -1.7237   40.6417 C   0  0  0  0  0  0  0  0  0  0  0  0
   47.4707   -2.3704   40.8881 N   0  0  0  0  0  0  0  0  0  0  0  0
   48.1444   -1.8421   42.0867 C   0  0  0  0  0  0  0  0  0  0  0  0
   47.2781   -2.2504   43.2945 C   0  0  0  0  0  0  0  0  0  0  0  0
   48.2099   -2.8897   39.8167 C   0  0  0  0  0  0  0  0  0  0  0  0
   48.0682   -4.2224   39.4781 C   0  0  0  0  0  0  0  0  0  0  0  0
   48.7869   -4.7588   38.4353 C   0  0  0  0  0  0  0  0  0  0  0  0
   49.6520   -3.9662   37.7173 C   0  0  0  0  0  0  0  0  0  0  0  0
   49.7983   -2.6352   38.0425 C   0  0  0  0  0  0  0  0  0  0  0  0
   49.0851   -2.0929   39.0860 C   0  0  0  0  0  0  0  0  0  0  0  0
   49.2430   -0.7931   39.3820 F   0  0  0  0  0  0  0  0  0  0  0  0
   44.7674   -4.6026   44.5602 O   0  0  0  0  0  0  0  0  0  0  0  0
   38.8729   -5.3662   42.2148 C   0  0  0  0  0  0  0  0  0  0  0  0
   37.6907   -4.6524   42.2611 C   0  0  0  0  0  0  0  0  0  0  0  0
   36.7323   -4.8357   41.2923 C   0  0  0  0  0  0  0  0  0  0  0  0
   36.9191   -5.7125   40.2420 C   0  0  0  0  0  0  0  0  0  0  0  0
   38.1173   -6.4134   40.1877 C   0  0  0  0  0  0  0  0  0  0  0  0
   39.0772   -6.2349   41.1585 C   0  0  0  0  0  0  0  0  0  0  0  0
   38.4791   -7.5748   38.8598 S   0  0  0  0  0  0  0  0  0  0  0  0
   40.2506   -7.9677   38.8277 C   0  0  0  0  0  0  0  0  0  0  0  0
   40.5253   -9.0565   37.7719 C   0  0  0  0  0  0  0  0  0  0  0  0
   41.6692   -8.7446   36.8424 N   0  3  1  0  0  0  0  0  0  0  0  0
   42.7981   -8.0074   37.5149 C   0  0  0  0  0  0  0  0  0  0  0  0
   43.8186   -7.4834   36.4771 C   0  0  0  0  0  0  0  0  0  0  0  0
   43.8736   -8.3673   35.2090 C   0  0  2  0  0  0  0  0  0  0  0  0
   43.5862   -9.8372   35.5592 C   0  0  0  0  0  0  0  0  0  0  0  0
   42.1500   -9.9758   36.1111 C   0  0  0  0  0  0  0  0  0  0  0  0
   45.1308   -8.2714   34.6246 F   0  0  0  0  0  0  0  0  0  0  0  0
   35.7609   -5.8253   39.2489 C   0  0  0  0  0  0  0  0  0  0  0  0
   34.6545   -5.0611   39.6109 F   0  0  0  0  0  0  0  0  0  0  0  0
   36.1117   -5.4142   37.9681 F   0  0  0  0  0  0  0  0  0  0  0  0
   35.3275   -7.1435   39.1581 F   0  0  0  0  0  0  0  0  0  0  0  0
   39.7646   -7.5155   44.6164 C   0  0  0  0  0  0  0  0  0  0  0  0
   44.0616   -3.5430   42.9751 H   0  0  0  0  0  0  0  0  0  0  0  0
   40.8215  -10.2604   44.6824 H   0  0  0  0  0  0  0  0  0  0  0  0
   40.6974  -11.3501   45.8951 H   0  0  0  0  0  0  0  0  0  0  0  0
   39.4519  -11.1348   44.8689 H   0  0  0  0  0  0  0  0  0  0  0  0
   42.0854   -8.2573   45.4317 H   0  0  0  0  0  0  0  0  0  0  0  0
   41.8667   -8.0247   47.0510 H   0  0  0  0  0  0  0  0  0  0  0  0
   42.9924   -6.1824   45.8309 H   0  0  0  0  0  0  0  0  0  0  0  0
   41.7401   -5.7751   46.8366 H   0  0  0  0  0  0  0  0  0  0  0  0
   42.8255   -3.3413   45.5425 H   0  0  0  0  0  0  0  0  0  0  0  0
   42.3617   -2.6023   44.0020 H   0  0  0  0  0  0  0  0  0  0  0  0
   45.5366   -2.3877   45.0691 H   0  0  0  0  0  0  0  0  0  0  0  0
   44.3110   -1.4576   44.4204 H   0  0  0  0  0  0  0  0  0  0  0  0
   45.8964   -0.8387   43.1773 H   0  0  0  0  0  0  0  0  0  0  0  0
   44.3807   -1.6012   41.7145 H   0  0  0  0  0  0  0  0  0  0  0  0
   45.0945   -3.0838   41.7873 H   0  0  0  0  0  0  0  0  0  0  0  0
   46.2842   -0.7312   40.5944 H   0  0  0  0  0  0  0  0  0  0  0  0
   45.7841   -2.0311   39.7725 H   0  0  0  0  0  0  0  0  0  0  0  0
   48.2182   -0.8463   42.0323 H   0  0  0  0  0  0  0  0  0  0  0  0
   49.0718   -2.2070   42.1694 H   0  0  0  0  0  0  0  0  0  0  0  0
   47.2661   -3.2476   43.3680 H   0  0  0  0  0  0  0  0  0  0  0  0
   47.6734   -1.8430   44.1178 H   0  0  0  0  0  0  0  0  0  0  0  0
   47.4378   -4.8013   39.9954 H   0  0  0  0  0  0  0  0  0  0  0  0
   48.6809   -5.7247   38.1993 H   0  0  0  0  0  0  0  0  0  0  0  0
   50.1748   -4.3559   36.9591 H   0  0  0  0  0  0  0  0  0  0  0  0
   50.4262   -2.0608   37.5173 H   0  0  0  0  0  0  0  0  0  0  0  0
   45.5794   -4.8834   44.0370 H   0  0  0  0  0  0  0  0  0  0  0  0
   37.5317   -3.9999   43.0019 H   0  0  0  0  0  0  0  0  0  0  0  0
   35.8773   -4.3204   41.3498 H   0  0  0  0  0  0  0  0  0  0  0  0
   39.9369   -6.7422   41.0987 H   0  0  0  0  0  0  0  0  0  0  0  0
   40.5357   -8.2956   39.7284 H   0  0  0  0  0  0  0  0  0  0  0  0
   40.7670   -7.1442   38.5928 H   0  0  0  0  0  0  0  0  0  0  0  0
   39.6979   -9.1792   37.2239 H   0  0  0  0  0  0  0  0  0  0  0  0
   40.7827   -9.8826   38.2732 H   0  0  0  0  0  0  0  0  0  0  0  0
   41.3369   -8.1835   36.2050 H   0  0  0  0  0  0  0  0  0  0  0  0
   43.2619   -8.6259   38.1491 H   0  0  0  0  0  0  0  0  0  0  0  0
   42.4170   -7.2244   38.0065 H   0  0  0  0  0  0  0  0  0  0  0  0
   44.7255   -7.4635   36.8977 H   0  0  0  0  0  0  0  0  0  0  0  0
   43.5278   -6.5682   36.1978 H   0  0  0  0  0  0  0  0  0  0  0  0
   43.1765   -8.0454   34.5683 H   0  0  0  0  0  0  0  0  0  0  0  0
   44.2404  -10.1494   36.2481 H   0  0  0  0  0  0  0  0  0  0  0  0
   43.6756  -10.3953   34.7342 H   0  0  0  0  0  0  0  0  0  0  0  0
   41.5298  -10.1553   35.3475 H   0  0  0  0  0  0  0  0  0  0  0  0
   42.1591  -10.7272   36.7709 H   0  0  0  0  0  0  0  0  0  0  0  0
   38.7663   -7.5142   44.5569 H   0  0  0  0  0  0  0  0  0  0  0  0
   40.1821   -8.1665   43.9825 H   0  0  0  0  0  0  0  0  0  0  0  0
  1  2  1  0  0  0  0
  1 52  1  0  0  0  0
  1 53  1  0  0  0  0
  1 54  1  0  0  0  0
  2  3  2  0  0  0  0
  2  4  2  0  0  0  0
  2  5  1  0  0  0  0
  5  6  1  0  0  0  0
  5 50  1  0  0  0  0
  6  7  1  0  0  0  0
  6 55  1  0  0  0  0
  6 56  1  0  0  0  0
  7  8  1  0  0  0  0
  7 57  1  0  0  0  0
  7 58  1  0  0  0  0
  8  9  2  0  0  0  0
  8 12  1  0  0  0  0
  9 10  1  0  0  0  0
  9 50  1  0  0  0  0
 10 11  2  0  0  0  0
 10 30  1  0  0  0  0
 11 12  1  0  0  0  0
 12 13  1  0  0  0  0
 13 14  1  0  0  0  0
 13 59  1  0  0  0  0
 13 60  1  0  0  0  0
 14 15  1  0  0  0  0
 14 29  1  0  0  0  0
 14 51  1  6  0  0  0
 15 16  1  0  0  0  0
 15 61  1  0  0  0  0
 15 62  1  0  0  0  0
 16 17  1  0  0  0  0
 16 21  1  0  0  0  0
 16 63  1  0  0  0  0
 17 18  1  0  0  0  0
 17 64  1  0  0  0  0
 17 65  1  0  0  0  0
 18 19  1  0  0  0  0
 18 66  1  0  0  0  0
 18 67  1  0  0  0  0
 19 20  1  0  0  0  0
 19 22  1  0  0  0  0
 20 21  1  0  0  0  0
 20 68  1  0  0  0  0
 20 69  1  0  0  0  0
 21 70  1  0  0  0  0
 21 71  1  0  0  0  0
 22 23  2  0  0  0  0
 22 27  1  0  0  0  0
 23 24  1  0  0  0  0
 23 72  1  0  0  0  0
 24 25  2  0  0  0  0
 24 73  1  0  0  0  0
 25 26  1  0  0  0  0
 25 74  1  0  0  0  0
 26 27  2  0  0  0  0
 26 75  1  0  0  0  0
 27 28  1  0  0  0  0
 29 76  1  0  0  0  0
 30 31  2  0  0  0  0
 30 35  1  0  0  0  0
 31 32  1  0  0  0  0
 31 77  1  0  0  0  0
 32 33  2  0  0  0  0
 32 78  1  0  0  0  0
 33 34  1  0  0  0  0
 33 46  1  0  0  0  0
 34 35  2  0  0  0  0
 34 36  1  0  0  0  0
 35 79  1  0  0  0  0
 36 37  1  0  0  0  0
 37 38  1  0  0  0  0
 37 80  1  0  0  0  0
 37 81  1  0  0  0  0
 38 39  1  0  0  0  0
 38 82  1  0  0  0  0
 38 83  1  0  0  0  0
 39 40  1  0  0  0  0
 39 44  1  0  0  0  0
 39 84  1  6  0  0  0
 40 41  1  0  0  0  0
 40 85  1  0  0  0  0
 40 86  1  0  0  0  0
 41 42  1  0  0  0  0
 41 87  1  0  0  0  0
 41 88  1  0  0  0  0
 42 43  1  0  0  0  0
 42 45  1  0  0  0  0
 42 89  1  6  0  0  0
 43 44  1  0  0  0  0
 43 90  1  0  0  0  0
 43 91  1  0  0  0  0
 44 92  1  0  0  0  0
 44 93  1  0  0  0  0
 46 47  1  0  0  0  0
 46 48  1  0  0  0  0
 46 49  1  0  0  0  0
 50 94  1  0  0  0  0
 50 95  1  0  0  0  0
M  CHG  2  16   1  39   1
M  END
