CatS_137:1_D
 OpenBabel12041818463D

 84 88  0  0  1  0  0  0  0  0999 V2000
   42.7228   -9.4263   47.1204 C   0  0  0  0  0  0  0  0  0  0  0  0
   41.0183   -8.9280   47.4754 S   0  0  0  0  0  0  0  0  0  0  0  0
   40.1844  -10.0852   47.4193 O   0  0  0  0  0  0  0  0  0  0  0  0
   41.0250   -8.1704   48.6860 O   0  0  0  0  0  0  0  0  0  0  0  0
   40.5305   -7.9481   46.2801 N   0  0  0  0  0  0  0  0  0  0  0  0
   40.3214   -8.6077   44.9794 C   0  0  0  0  0  0  0  0  0  0  0  0
   39.4965   -7.7095   44.0346 C   0  0  0  0  0  0  0  0  0  0  0  0
   40.1505   -6.3493   43.8552 C   0  0  0  0  0  0  0  0  0  0  0  0
   41.0209   -5.9544   44.7873 C   0  0  0  0  0  0  0  0  0  0  0  0
   41.5130   -4.7349   44.2865 C   0  0  0  0  0  0  0  0  0  0  0  0
   40.8803   -4.4673   43.1658 N   0  0  0  0  0  0  0  0  0  0  0  0
   39.9816   -5.4414   42.8437 N   0  0  0  0  0  0  0  0  0  0  0  0
   38.9050   -5.2326   41.8424 C   0  0  0  0  0  0  0  0  0  0  0  0
   37.9561   -4.0554   41.4771 C   0  0  2  0  0  0  0  0  0  0  0  0
   36.4922   -4.5098   41.3584 C   0  0  0  0  0  0  0  0  0  0  0  0
   36.0768   -5.4184   40.2316 N   0  3  1  0  0  0  0  0  0  0  0  0
   36.4711   -4.9275   38.8613 C   0  0  0  0  0  0  0  0  0  0  0  0
   35.9412   -5.8489   37.7400 C   0  0  0  0  0  0  0  0  0  0  0  0
   36.1128   -7.3008   38.1154 C   0  0  0  0  0  0  0  0  0  0  0  0
   36.4275   -7.7225   39.3225 C   0  0  0  0  0  0  0  0  0  0  0  0
   36.5649   -6.8204   40.5214 C   0  0  0  0  0  0  0  0  0  0  0  0
   38.3839   -3.3921   40.2775 O   0  0  0  0  0  0  0  0  0  0  0  0
   42.5707   -3.9179   44.8561 C   0  0  0  0  0  0  0  0  0  0  0  0
   43.7086   -4.5427   45.3282 C   0  0  0  0  0  0  0  0  0  0  0  0
   44.7575   -3.8110   45.8244 C   0  0  0  0  0  0  0  0  0  0  0  0
   44.7140   -2.4325   45.8754 C   0  0  0  0  0  0  0  0  0  0  0  0
   43.5511   -1.8060   45.4395 C   0  0  0  0  0  0  0  0  0  0  0  0
   42.5004   -2.5370   44.9242 C   0  0  0  0  0  0  0  0  0  0  0  0
   43.3644   -0.0165   45.4861 S   0  0  0  0  0  0  0  0  0  0  0  0
   42.6372    0.4641   47.0811 C   0  0  0  0  0  0  0  0  0  0  0  0
   41.1918   -0.0740   47.2235 C   0  0  0  0  0  0  0  0  0  0  0  0
   40.9804   -0.9727   48.4188 N   0  3  2  0  0  0  0  0  0  0  0  0
   40.5721   -0.2108   49.6558 C   0  0  0  0  0  0  0  0  0  0  0  0
   40.2590   -1.1779   50.8203 C   0  0  0  0  0  0  0  0  0  0  0  0
   41.4567   -2.1121   51.0903 C   0  0  2  0  0  0  0  0  0  0  0  0
   41.8212   -2.8859   49.8109 C   0  0  0  0  0  0  0  0  0  0  0  0
   42.1524   -1.8781   48.6946 C   0  0  0  0  0  0  0  0  0  0  0  0
   41.1248   -3.0186   52.0904 F   0  0  0  0  0  0  0  0  0  0  0  0
   45.9870   -1.7709   46.4091 C   0  0  0  0  0  0  0  0  0  0  0  0
   45.7543   -0.9979   47.5430 F   0  0  0  0  0  0  0  0  0  0  0  0
   46.5527   -0.9234   45.4634 F   0  0  0  0  0  0  0  0  0  0  0  0
   46.9494   -2.7000   46.7887 F   0  0  0  0  0  0  0  0  0  0  0  0
   41.3305   -6.7186   46.0725 C   0  0  0  0  0  0  0  0  0  0  0  0
   38.0053   -3.3994   42.2303 H   0  0  0  0  0  0  0  0  0  0  0  0
   43.0155   -8.9990   46.2650 H   0  0  0  0  0  0  0  0  0  0  0  0
   43.3224   -9.1339   47.8654 H   0  0  0  0  0  0  0  0  0  0  0  0
   42.7717  -10.4215   47.0348 H   0  0  0  0  0  0  0  0  0  0  0  0
   39.8361   -9.4703   45.1220 H   0  0  0  0  0  0  0  0  0  0  0  0
   41.2131   -8.7776   44.5598 H   0  0  0  0  0  0  0  0  0  0  0  0
   38.5810   -7.5856   44.4174 H   0  0  0  0  0  0  0  0  0  0  0  0
   39.4461   -8.1544   43.1405 H   0  0  0  0  0  0  0  0  0  0  0  0
   38.2691   -5.9780   42.0419 H   0  0  0  0  0  0  0  0  0  0  0  0
   39.5294   -5.0777   41.0767 H   0  0  0  0  0  0  0  0  0  0  0  0
   35.9364   -3.6817   41.2849 H   0  0  0  0  0  0  0  0  0  0  0  0
   36.3607   -5.0776   42.1710 H   0  0  0  0  0  0  0  0  0  0  0  0
   35.1651   -5.4491   40.2330 H   0  0  0  0  0  0  0  0  0  0  0  0
   37.4688   -4.8885   38.8057 H   0  0  0  0  0  0  0  0  0  0  0  0
   36.0678   -4.0218   38.7307 H   0  0  0  0  0  0  0  0  0  0  0  0
   36.4445   -5.6639   36.8960 H   0  0  0  0  0  0  0  0  0  0  0  0
   34.9670   -5.6658   37.6078 H   0  0  0  0  0  0  0  0  0  0  0  0
   35.9788   -7.9873   37.4007 H   0  0  0  0  0  0  0  0  0  0  0  0
   36.5853   -8.7016   39.4513 H   0  0  0  0  0  0  0  0  0  0  0  0
   36.0315   -7.2000   41.2774 H   0  0  0  0  0  0  0  0  0  0  0  0
   37.5350   -6.7677   40.7583 H   0  0  0  0  0  0  0  0  0  0  0  0
   38.8873   -4.0171   39.6714 H   0  0  0  0  0  0  0  0  0  0  0  0
   43.7686   -5.5407   45.3080 H   0  0  0  0  0  0  0  0  0  0  0  0
   45.5717   -4.2871   46.1567 H   0  0  0  0  0  0  0  0  0  0  0  0
   41.6815   -2.0654   44.5973 H   0  0  0  0  0  0  0  0  0  0  0  0
   42.6245    1.4618   47.1480 H   0  0  0  0  0  0  0  0  0  0  0  0
   43.1933    0.0709   47.8134 H   0  0  0  0  0  0  0  0  0  0  0  0
   40.9645   -0.5889   46.3969 H   0  0  0  0  0  0  0  0  0  0  0  0
   40.6010    0.7219   47.3562 H   0  0  0  0  0  0  0  0  0  0  0  0
   40.2739   -1.5111   48.2111 H   0  0  0  0  0  0  0  0  0  0  0  0
   39.7594    0.3352   49.4526 H   0  0  0  0  0  0  0  0  0  0  0  0
   41.3289    0.3827   49.9297 H   0  0  0  0  0  0  0  0  0  0  0  0
   39.4570   -1.7274   50.5860 H   0  0  0  0  0  0  0  0  0  0  0  0
   40.0794   -0.6408   51.6445 H   0  0  0  0  0  0  0  0  0  0  0  0
   42.2389   -1.5598   51.3787 H   0  0  0  0  0  0  0  0  0  0  0  0
   41.0501   -3.4582   49.5318 H   0  0  0  0  0  0  0  0  0  0  0  0
   42.6139   -3.4706   49.9834 H   0  0  0  0  0  0  0  0  0  0  0  0
   42.9369   -1.3240   48.9730 H   0  0  0  0  0  0  0  0  0  0  0  0
   42.3644   -2.3872   47.8604 H   0  0  0  0  0  0  0  0  0  0  0  0
   42.2970   -6.9749   46.0584 H   0  0  0  0  0  0  0  0  0  0  0  0
   41.0954   -6.1031   46.8246 H   0  0  0  0  0  0  0  0  0  0  0  0
  1  2  1  0  0  0  0
  1 45  1  0  0  0  0
  1 46  1  0  0  0  0
  1 47  1  0  0  0  0
  2  3  2  0  0  0  0
  2  4  2  0  0  0  0
  2  5  1  0  0  0  0
  5  6  1  0  0  0  0
  5 43  1  0  0  0  0
  6  7  1  0  0  0  0
  6 48  1  0  0  0  0
  6 49  1  0  0  0  0
  7  8  1  0  0  0  0
  7 50  1  0  0  0  0
  7 51  1  0  0  0  0
  8  9  2  0  0  0  0
  8 12  1  0  0  0  0
  9 10  1  0  0  0  0
  9 43  1  0  0  0  0
 10 11  2  0  0  0  0
 10 23  1  0  0  0  0
 11 12  1  0  0  0  0
 12 13  1  0  0  0  0
 13 14  1  0  0  0  0
 13 52  1  0  0  0  0
 13 53  1  0  0  0  0
 14 15  1  0  0  0  0
 14 22  1  0  0  0  0
 14 44  1  1  0  0  0
 15 16  1  0  0  0  0
 15 54  1  0  0  0  0
 15 55  1  0  0  0  0
 16 17  1  0  0  0  0
 16 21  1  0  0  0  0
 16 56  1  1  0  0  0
 17 18  1  0  0  0  0
 17 57  1  0  0  0  0
 17 58  1  0  0  0  0
 18 19  1  0  0  0  0
 18 59  1  0  0  0  0
 18 60  1  0  0  0  0
 19 20  2  0  0  0  0
 19 61  1  0  0  0  0
 20 21  1  0  0  0  0
 20 62  1  0  0  0  0
 21 63  1  0  0  0  0
 21 64  1  0  0  0  0
 22 65  1  0  0  0  0
 23 24  2  0  0  0  0
 23 28  1  0  0  0  0
 24 25  1  0  0  0  0
 24 66  1  0  0  0  0
 25 26  2  0  0  0  0
 25 67  1  0  0  0  0
 26 27  1  0  0  0  0
 26 39  1  0  0  0  0
 27 28  2  0  0  0  0
 27 29  1  0  0  0  0
 28 68  1  0  0  0  0
 29 30  1  0  0  0  0
 30 31  1  0  0  0  0
 30 69  1  0  0  0  0
 30 70  1  0  0  0  0
 31 32  1  0  0  0  0
 31 71  1  0  0  0  0
 31 72  1  0  0  0  0
 32 33  1  0  0  0  0
 32 37  1  0  0  0  0
 32 73  1  6  0  0  0
 33 34  1  0  0  0  0
 33 74  1  0  0  0  0
 33 75  1  0  0  0  0
 34 35  1  0  0  0  0
 34 76  1  0  0  0  0
 34 77  1  0  0  0  0
 35 36  1  0  0  0  0
 35 38  1  0  0  0  0
 35 78  1  1  0  0  0
 36 37  1  0  0  0  0
 36 79  1  0  0  0  0
 36 80  1  0  0  0  0
 37 81  1  0  0  0  0
 37 82  1  0  0  0  0
 39 40  1  0  0  0  0
 39 41  1  0  0  0  0
 39 42  1  0  0  0  0
 43 83  1  0  0  0  0
 43 84  1  0  0  0  0
M  CHG  2  16   1  32   1
M  END
