CatS_389:1_D
 OpenBabel12041818463D

 86 91  0  0  0  0  0  0  0  0999 V2000
   50.0142   -6.6133   36.4981 C   0  0  0  0  0  0  0  0  0  0  0  0
   50.3791   -5.2928   36.6344 C   0  0  0  0  0  0  0  0  0  0  0  0
   51.2582   -4.7151   35.7429 C   0  0  0  0  0  0  0  0  0  0  0  0
   51.7645   -5.4725   34.7103 C   0  0  0  0  0  0  0  0  0  0  0  0
   51.3971   -6.7934   34.5668 C   0  0  0  0  0  0  0  0  0  0  0  0
   50.5215   -7.3646   35.4640 C   0  0  0  0  0  0  0  0  0  0  0  0
   51.8866   -7.5205   33.5528 F   0  0  0  0  0  0  0  0  0  0  0  0
   51.6539   -3.2484   35.8509 C   0  0  0  0  0  0  0  0  0  0  0  0
   50.7251   -2.4085   36.6957 N   0  3  0  0  0  0  0  0  0  0  0  0
   51.1121   -2.2509   38.1489 C   0  0  0  0  0  0  0  0  0  0  0  0
   49.9547   -2.2350   39.1409 C   0  0  0  0  0  0  0  0  0  0  0  0
   50.1898   -2.5418   40.4675 C   0  0  0  0  0  0  0  0  0  0  0  0
   49.1619   -2.5556   41.3770 C   0  0  0  0  0  0  0  0  0  0  0  0
   47.8705   -2.2455   40.9650 C   0  0  0  0  0  0  0  0  0  0  0  0
   47.6351   -1.9358   39.6305 C   0  0  0  0  0  0  0  0  0  0  0  0
   48.6690   -1.9430   38.7308 C   0  0  0  0  0  0  0  0  0  0  0  0
   46.7649   -2.2347   41.8879 C   0  0  0  0  0  0  0  0  0  0  0  0
   45.8185   -2.2683   42.6577 C   0  0  0  0  0  0  0  0  0  0  0  0
   44.6875   -2.3624   43.5455 C   0  0  0  0  0  0  0  0  0  0  0  0
   43.9759   -3.5484   43.7048 C   0  0  0  0  0  0  0  0  0  0  0  0
   42.8828   -3.5940   44.5527 C   0  0  0  0  0  0  0  0  0  0  0  0
   42.5213   -2.4499   45.2457 C   0  0  0  0  0  0  0  0  0  0  0  0
   43.2245   -1.2773   45.0978 C   0  0  0  0  0  0  0  0  0  0  0  0
   44.3014   -1.2242   44.2492 C   0  0  0  0  0  0  0  0  0  0  0  0
   45.1827    0.2642   44.0622 Cl  0  0  0  0  0  0  0  0  0  0  0  0
   42.0673   -4.7817   44.7481 C   0  0  0  0  0  0  0  0  0  0  0  0
   42.1421   -5.7916   45.7345 C   0  0  0  0  0  0  0  0  0  0  0  0
   41.1492   -6.6258   45.4075 C   0  0  0  0  0  0  0  0  0  0  0  0
   40.4492   -6.2110   44.3133 N   0  0  0  0  0  0  0  0  0  0  0  0
   41.0672   -5.0683   43.9472 N   0  0  0  0  0  0  0  0  0  0  0  0
   39.2387   -6.7170   43.6403 C   0  0  0  0  0  0  0  0  0  0  0  0
   39.2615   -7.5254   42.3272 C   0  0  0  0  0  0  0  0  0  0  0  0
   39.2351   -6.6178   41.0781 C   0  0  0  0  0  0  0  0  0  0  0  0
   37.8898   -6.5529   40.3944 N   0  3  0  0  0  0  0  0  0  0  0  0
   37.9583   -7.0685   38.9780 C   0  0  0  0  0  0  0  0  0  0  0  0
   36.5594   -7.2729   38.3672 C   0  0  0  0  0  0  0  0  0  0  0  0
   35.7028   -5.6805   38.2703 S   0  0  0  0  0  0  0  0  0  0  0  0
   35.7917   -5.1879   40.0110 C   0  0  0  0  0  0  0  0  0  0  0  0
   37.2536   -5.1878   40.4992 C   0  0  0  0  0  0  0  0  0  0  0  0
   40.8670   -7.8824   46.2130 C   0  0  0  0  0  0  0  0  0  0  0  0
   42.0300   -8.3125   47.1392 C   0  0  0  0  0  0  0  0  0  0  0  0
   42.9224   -7.2465   47.6518 N   0  0  0  0  0  0  0  0  0  0  0  0
   43.0837   -5.9738   46.9154 C   0  0  0  0  0  0  0  0  0  0  0  0
   43.6580   -7.4226   48.7779 C   0  0  0  0  0  0  0  0  0  0  0  0
   44.2395   -6.4762   49.3193 O   0  0  0  0  0  0  0  0  0  0  0  0
   43.7699   -8.6639   49.2936 N   0  0  0  0  0  0  0  0  0  0  0  0
   49.3799   -7.0264   37.1516 H   0  0  0  0  0  0  0  0  0  0  0  0
   50.0040   -4.7489   37.3851 H   0  0  0  0  0  0  0  0  0  0  0  0
   52.4032   -5.0614   34.0597 H   0  0  0  0  0  0  0  0  0  0  0  0
   50.2553   -8.3233   35.3636 H   0  0  0  0  0  0  0  0  0  0  0  0
   51.6772   -2.8613   34.9291 H   0  0  0  0  0  0  0  0  0  0  0  0
   52.5449   -3.2275   36.3044 H   0  0  0  0  0  0  0  0  0  0  0  0
   50.6885   -1.5747   36.3316 H   0  0  0  0  0  0  0  0  0  0  0  0
   49.8689   -2.7110   36.6245 H   0  0  0  0  0  0  0  0  0  0  0  0
   51.6135   -1.3909   38.2436 H   0  0  0  0  0  0  0  0  0  0  0  0
   51.6544   -3.0597   38.3765 H   0  0  0  0  0  0  0  0  0  0  0  0
   51.1191   -2.7562   40.7682 H   0  0  0  0  0  0  0  0  0  0  0  0
   49.3413   -2.7879   42.3329 H   0  0  0  0  0  0  0  0  0  0  0  0
   46.7102   -1.7075   39.3265 H   0  0  0  0  0  0  0  0  0  0  0  0
   48.4907   -1.7350   37.7692 H   0  0  0  0  0  0  0  0  0  0  0  0
   44.2552   -4.3688   43.2059 H   0  0  0  0  0  0  0  0  0  0  0  0
   41.7357   -2.4773   45.8637 H   0  0  0  0  0  0  0  0  0  0  0  0
   42.9506   -0.4627   45.6091 H   0  0  0  0  0  0  0  0  0  0  0  0
   38.6718   -5.9137   43.4578 H   0  0  0  0  0  0  0  0  0  0  0  0
   38.9369   -7.4158   44.2888 H   0  0  0  0  0  0  0  0  0  0  0  0
   38.4645   -8.1290   42.3058 H   0  0  0  0  0  0  0  0  0  0  0  0
   40.1138   -8.0480   42.3054 H   0  0  0  0  0  0  0  0  0  0  0  0
   39.9074   -6.9628   40.4229 H   0  0  0  0  0  0  0  0  0  0  0  0
   39.4451   -5.6911   41.3896 H   0  0  0  0  0  0  0  0  0  0  0  0
   37.3379   -7.1147   40.8516 H   0  0  0  0  0  0  0  0  0  0  0  0
   38.4452   -7.9421   38.9745 H   0  0  0  0  0  0  0  0  0  0  0  0
   38.4375   -6.3867   38.4252 H   0  0  0  0  0  0  0  0  0  0  0  0
   36.0335   -7.9027   38.9389 H   0  0  0  0  0  0  0  0  0  0  0  0
   36.6504   -7.6569   37.4484 H   0  0  0  0  0  0  0  0  0  0  0  0
   35.2579   -5.8284   40.5632 H   0  0  0  0  0  0  0  0  0  0  0  0
   35.4212   -4.2638   40.1044 H   0  0  0  0  0  0  0  0  0  0  0  0
   37.7804   -4.5421   39.9464 H   0  0  0  0  0  0  0  0  0  0  0  0
   37.2541   -4.9222   41.4633 H   0  0  0  0  0  0  0  0  0  0  0  0
   40.6765   -8.6294   45.5761 H   0  0  0  0  0  0  0  0  0  0  0  0
   40.0886   -7.6762   46.8060 H   0  0  0  0  0  0  0  0  0  0  0  0
   42.5955   -8.9620   46.6310 H   0  0  0  0  0  0  0  0  0  0  0  0
   41.5844   -8.6848   47.9533 H   0  0  0  0  0  0  0  0  0  0  0  0
   42.9307   -5.2206   47.5550 H   0  0  0  0  0  0  0  0  0  0  0  0
   44.0088   -5.9869   46.5357 H   0  0  0  0  0  0  0  0  0  0  0  0
   43.4137   -9.3569   48.8901 H   0  0  0  0  0  0  0  0  0  0  0  0
   44.2240   -8.7838   50.0378 H   0  0  0  0  0  0  0  0  0  0  0  0
  1  2  2  0  0  0  0
  1  6  1  0  0  0  0
  1 47  1  0  0  0  0
  2  3  1  0  0  0  0
  2 48  1  0  0  0  0
  3  4  2  0  0  0  0
  3  8  1  0  0  0  0
  4  5  1  0  0  0  0
  4 49  1  0  0  0  0
  5  6  2  0  0  0  0
  5  7  1  0  0  0  0
  6 50  1  0  0  0  0
  8  9  1  0  0  0  0
  8 51  1  0  0  0  0
  8 52  1  0  0  0  0
  9 10  1  0  0  0  0
  9 53  1  0  0  0  0
  9 54  1  0  0  0  0
 10 11  1  0  0  0  0
 10 55  1  0  0  0  0
 10 56  1  0  0  0  0
 11 12  2  0  0  0  0
 11 16  1  0  0  0  0
 12 13  1  0  0  0  0
 12 57  1  0  0  0  0
 13 14  2  0  0  0  0
 13 58  1  0  0  0  0
 14 15  1  0  0  0  0
 14 17  1  0  0  0  0
 15 16  2  0  0  0  0
 15 59  1  0  0  0  0
 16 60  1  0  0  0  0
 17 18  3  0  0  0  0
 18 19  1  0  0  0  0
 19 20  2  0  0  0  0
 19 24  1  0  0  0  0
 20 21  1  0  0  0  0
 20 61  1  0  0  0  0
 21 22  2  0  0  0  0
 21 26  1  0  0  0  0
 22 23  1  0  0  0  0
 22 62  1  0  0  0  0
 23 24  2  0  0  0  0
 23 63  1  0  0  0  0
 24 25  1  0  0  0  0
 26 27  1  0  0  0  0
 26 30  2  0  0  0  0
 27 28  2  0  0  0  0
 27 43  1  0  0  0  0
 28 29  1  0  0  0  0
 28 40  1  0  0  0  0
 29 30  1  0  0  0  0
 29 31  1  0  0  0  0
 31 32  1  0  0  0  0
 31 64  1  0  0  0  0
 31 65  1  0  0  0  0
 32 33  1  0  0  0  0
 32 66  1  0  0  0  0
 32 67  1  0  0  0  0
 33 34  1  0  0  0  0
 33 68  1  0  0  0  0
 33 69  1  0  0  0  0
 34 35  1  0  0  0  0
 34 39  1  0  0  0  0
 34 70  1  0  0  0  0
 35 36  1  0  0  0  0
 35 71  1  0  0  0  0
 35 72  1  0  0  0  0
 36 37  1  0  0  0  0
 36 73  1  0  0  0  0
 36 74  1  0  0  0  0
 37 38  1  0  0  0  0
 38 39  1  0  0  0  0
 38 75  1  0  0  0  0
 38 76  1  0  0  0  0
 39 77  1  0  0  0  0
 39 78  1  0  0  0  0
 40 41  1  0  0  0  0
 40 79  1  0  0  0  0
 40 80  1  0  0  0  0
 41 42  1  0  0  0  0
 41 81  1  0  0  0  0
 41 82  1  0  0  0  0
 42 43  1  0  0  0  0
 42 44  1  0  0  0  0
 43 83  1  0  0  0  0
 43 84  1  0  0  0  0
 44 45  2  0  0  0  0
 44 46  1  0  0  0  0
 46 85  1  0  0  0  0
 46 86  1  0  0  0  0
M  CHG  2   9   1  34   1
M  END
