CatS_220:1_D
 OpenBabel12041818463D

 86 90  0  0  1  0  0  0  0  0999 V2000
   40.5691   -0.2116   50.2395 C   0  0  0  0  0  0  0  0  0  0  0  0
   41.4471    0.3946   49.1295 C   0  0  1  0  0  0  0  0  0  0  0  0
   42.7979   -0.3639   49.0739 C   0  0  0  0  0  0  0  0  0  0  0  0
   42.7182   -1.5869   48.1330 C   0  0  0  0  0  0  0  0  0  0  0  0
   42.3277   -1.1927   46.7214 N   0  3  1  0  0  0  0  0  0  0  0  0
   41.6815    0.1705   46.6166 C   0  0  0  0  0  0  0  0  0  0  0  0
   40.6923    0.3742   47.7771 C   0  0  0  0  0  0  0  0  0  0  0  0
   43.3580   -1.4878   45.6476 C   0  0  0  0  0  0  0  0  0  0  0  0
   43.1320   -2.7392   44.7629 C   0  0  1  0  0  0  0  0  0  0  0  0
   42.2026   -3.7613   45.4582 C   0  0  0  0  0  0  0  0  0  0  0  0
   41.4591   -4.7783   44.6933 N   0  0  0  0  0  0  0  0  0  0  0  0
   41.5216   -6.1365   44.6948 C   0  0  0  0  0  0  0  0  0  0  0  0
   40.6427   -6.6955   43.8615 C   0  0  0  0  0  0  0  0  0  0  0  0
   40.0179   -5.5927   43.2454 C   0  0  0  0  0  0  0  0  0  0  0  0
   40.5171   -4.4905   43.7626 N   0  0  0  0  0  0  0  0  0  0  0  0
   39.0190   -5.6135   42.1944 C   0  0  0  0  0  0  0  0  0  0  0  0
   37.9196   -4.7757   42.2148 C   0  0  0  0  0  0  0  0  0  0  0  0
   36.9908   -4.8210   41.2024 C   0  0  0  0  0  0  0  0  0  0  0  0
   37.1252   -5.6904   40.1378 C   0  0  0  0  0  0  0  0  0  0  0  0
   38.2313   -6.5306   40.1266 C   0  0  0  0  0  0  0  0  0  0  0  0
   39.1630   -6.4901   41.1374 C   0  0  0  0  0  0  0  0  0  0  0  0
   38.5210   -7.7158   38.8069 S   0  0  0  0  0  0  0  0  0  0  0  0
   40.2755   -7.5715   38.3613 C   0  0  0  0  0  0  0  0  0  0  0  0
   40.7243   -8.6193   37.3208 C   0  0  0  0  0  0  0  0  0  0  0  0
   42.1451   -9.0788   37.5189 N   0  3  1  0  0  0  0  0  0  0  0  0
   42.4522  -10.3966   36.8746 C   0  0  0  0  0  0  0  0  0  0  0  0
   43.1302  -10.0118   35.5437 C   0  0  0  0  0  0  0  0  0  0  0  0
   43.4232   -8.4975   35.6146 C   0  0  1  0  0  0  0  0  0  0  0  0
   43.2002   -8.1050   37.0838 C   0  0  0  0  0  0  0  0  0  0  0  0
   44.7549   -8.2645   35.2774 F   0  0  0  0  0  0  0  0  0  0  0  0
   36.0254   -5.6409   39.0760 C   0  0  0  0  0  0  0  0  0  0  0  0
   36.4666   -5.0792   37.8831 F   0  0  0  0  0  0  0  0  0  0  0  0
   34.9183   -4.8925   39.4692 F   0  0  0  0  0  0  0  0  0  0  0  0
   35.5675   -6.9213   38.7857 F   0  0  0  0  0  0  0  0  0  0  0  0
   40.4740   -8.2007   43.7344 C   0  0  0  0  0  0  0  0  0  0  0  0
   40.8558   -8.8280   45.0158 N   0  0  0  0  0  0  0  0  0  0  0  0
   42.2687   -8.5085   45.3074 C   0  0  0  0  0  0  0  0  0  0  0  0
   42.4532   -6.9884   45.5397 C   0  0  0  0  0  0  0  0  0  0  0  0
   39.7733   -8.8605   46.2118 S   0  0  0  0  0  0  0  0  0  0  0  0
   40.3810   -8.2177   47.3307 O   0  0  0  0  0  0  0  0  0  0  0  0
   38.5870   -8.2667   45.6868 O   0  0  0  0  0  0  0  0  0  0  0  0
   39.4496  -10.6011   46.6143 C   0  0  0  0  0  0  0  0  0  0  0  0
   42.5186   -2.3693   43.5188 O   0  0  0  0  0  0  0  0  0  0  0  0
   44.0297   -3.1508   44.6061 H   0  0  0  0  0  0  0  0  0  0  0  0
   42.8425   -7.9755   34.9899 H   0  0  0  0  0  0  0  0  0  0  0  0
   39.6915   -0.4864   49.8468 H   0  0  0  0  0  0  0  0  0  0  0  0
   41.0260   -1.0088   50.6341 H   0  0  0  0  0  0  0  0  0  0  0  0
   40.4197    0.4669   50.9587 H   0  0  0  0  0  0  0  0  0  0  0  0
   41.6463    1.3536   49.3307 H   0  0  0  0  0  0  0  0  0  0  0  0
   43.0375   -0.6730   49.9942 H   0  0  0  0  0  0  0  0  0  0  0  0
   43.4949    0.2597   48.7198 H   0  0  0  0  0  0  0  0  0  0  0  0
   42.0395   -2.2280   48.4913 H   0  0  0  0  0  0  0  0  0  0  0  0
   43.6247   -2.0074   48.0956 H   0  0  0  0  0  0  0  0  0  0  0  0
   41.6458   -1.7639   46.5181 H   0  0  0  0  0  0  0  0  0  0  0  0
   41.1942    0.2417   45.7463 H   0  0  0  0  0  0  0  0  0  0  0  0
   42.3904    0.8743   46.6637 H   0  0  0  0  0  0  0  0  0  0  0  0
   40.2094    1.2412   47.6540 H   0  0  0  0  0  0  0  0  0  0  0  0
   40.0377   -0.3817   47.7814 H   0  0  0  0  0  0  0  0  0  0  0  0
   44.2428   -1.5947   46.1012 H   0  0  0  0  0  0  0  0  0  0  0  0
   43.2938   -0.7159   45.0151 H   0  0  0  0  0  0  0  0  0  0  0  0
   41.5204   -3.2279   45.9583 H   0  0  0  0  0  0  0  0  0  0  0  0
   42.8507   -4.3191   45.9767 H   0  0  0  0  0  0  0  0  0  0  0  0
   37.7990   -4.1325   42.9710 H   0  0  0  0  0  0  0  0  0  0  0  0
   36.1997   -4.2103   41.2375 H   0  0  0  0  0  0  0  0  0  0  0  0
   39.9532   -7.1022   41.1066 H   0  0  0  0  0  0  0  0  0  0  0  0
   40.8258   -7.6848   39.1885 H   0  0  0  0  0  0  0  0  0  0  0  0
   40.4049   -6.6696   37.9490 H   0  0  0  0  0  0  0  0  0  0  0  0
   40.6412   -8.2194   36.4080 H   0  0  0  0  0  0  0  0  0  0  0  0
   40.1356   -9.4200   37.4315 H   0  0  0  0  0  0  0  0  0  0  0  0
   42.2584   -9.1944   38.4165 H   0  0  0  0  0  0  0  0  0  0  0  0
   41.6148  -10.9185   36.7122 H   0  0  0  0  0  0  0  0  0  0  0  0
   43.0306  -10.9790   37.4459 H   0  0  0  0  0  0  0  0  0  0  0  0
   42.5224  -10.2120   34.7753 H   0  0  0  0  0  0  0  0  0  0  0  0
   43.9723  -10.5332   35.4059 H   0  0  0  0  0  0  0  0  0  0  0  0
   44.0371   -8.2114   37.6208 H   0  0  0  0  0  0  0  0  0  0  0  0
   42.9364   -7.1482   37.2058 H   0  0  0  0  0  0  0  0  0  0  0  0
   41.0585   -8.5459   43.0001 H   0  0  0  0  0  0  0  0  0  0  0  0
   39.5227   -8.4204   43.5181 H   0  0  0  0  0  0  0  0  0  0  0  0
   42.8370   -8.7962   44.5365 H   0  0  0  0  0  0  0  0  0  0  0  0
   42.5416   -8.9936   46.1382 H   0  0  0  0  0  0  0  0  0  0  0  0
   42.2815   -6.7886   46.5044 H   0  0  0  0  0  0  0  0  0  0  0  0
   43.3892   -6.7597   45.2722 H   0  0  0  0  0  0  0  0  0  0  0  0
   38.4987  -10.8154   46.3914 H   0  0  0  0  0  0  0  0  0  0  0  0
   40.0605  -11.1895   46.0846 H   0  0  0  0  0  0  0  0  0  0  0  0
   39.6115  -10.7570   47.5887 H   0  0  0  0  0  0  0  0  0  0  0  0
   42.7358   -1.4203   43.2686 H   0  0  0  0  0  0  0  0  0  0  0  0
  1  2  1  0  0  0  0
  1 46  1  0  0  0  0
  1 47  1  0  0  0  0
  1 48  1  0  0  0  0
  2  3  1  0  0  0  0
  2  7  1  0  0  0  0
  2 49  1  1  0  0  0
  3  4  1  0  0  0  0
  3 50  1  0  0  0  0
  3 51  1  0  0  0  0
  4  5  1  0  0  0  0
  4 52  1  0  0  0  0
  4 53  1  0  0  0  0
  5  6  1  0  0  0  0
  5  8  1  0  0  0  0
  5 54  1  6  0  0  0
  6  7  1  0  0  0  0
  6 55  1  0  0  0  0
  6 56  1  0  0  0  0
  7 57  1  0  0  0  0
  7 58  1  0  0  0  0
  8  9  1  0  0  0  0
  8 59  1  0  0  0  0
  8 60  1  0  0  0  0
  9 10  1  0  0  0  0
  9 43  1  0  0  0  0
  9 44  1  6  0  0  0
 10 11  1  0  0  0  0
 10 61  1  0  0  0  0
 10 62  1  0  0  0  0
 11 12  1  0  0  0  0
 11 15  1  0  0  0  0
 12 13  2  0  0  0  0
 12 38  1  0  0  0  0
 13 14  1  0  0  0  0
 13 35  1  0  0  0  0
 14 15  2  0  0  0  0
 14 16  1  0  0  0  0
 16 17  2  0  0  0  0
 16 21  1  0  0  0  0
 17 18  1  0  0  0  0
 17 63  1  0  0  0  0
 18 19  2  0  0  0  0
 18 64  1  0  0  0  0
 19 20  1  0  0  0  0
 19 31  1  0  0  0  0
 20 21  2  0  0  0  0
 20 22  1  0  0  0  0
 21 65  1  0  0  0  0
 22 23  1  0  0  0  0
 23 24  1  0  0  0  0
 23 66  1  0  0  0  0
 23 67  1  0  0  0  0
 24 25  1  0  0  0  0
 24 68  1  0  0  0  0
 24 69  1  0  0  0  0
 25 26  1  0  0  0  0
 25 29  1  0  0  0  0
 25 70  1  1  0  0  0
 26 27  1  0  0  0  0
 26 71  1  0  0  0  0
 26 72  1  0  0  0  0
 27 28  1  0  0  0  0
 27 73  1  0  0  0  0
 27 74  1  0  0  0  0
 28 29  1  0  0  0  0
 28 30  1  0  0  0  0
 28 45  1  6  0  0  0
 29 75  1  0  0  0  0
 29 76  1  0  0  0  0
 31 32  1  0  0  0  0
 31 33  1  0  0  0  0
 31 34  1  0  0  0  0
 35 36  1  0  0  0  0
 35 77  1  0  0  0  0
 35 78  1  0  0  0  0
 36 37  1  0  0  0  0
 36 39  1  0  0  0  0
 37 38  1  0  0  0  0
 37 79  1  0  0  0  0
 37 80  1  0  0  0  0
 38 81  1  0  0  0  0
 38 82  1  0  0  0  0
 39 40  2  0  0  0  0
 39 41  2  0  0  0  0
 39 42  1  0  0  0  0
 42 83  1  0  0  0  0
 42 84  1  0  0  0  0
 42 85  1  0  0  0  0
 43 86  1  0  0  0  0
M  CHG  2   5   1  25   1
M  END
