CatS_346:1_D
 OpenBabel12041818463D

 86 91  0  0  0  0  0  0  0  0999 V2000
   48.0955   -0.6101   39.1155 C   0  0  0  0  0  0  0  0  0  0  0  0
   49.1020   -1.5174   38.8645 C   0  0  0  0  0  0  0  0  0  0  0  0
   49.2435   -2.6426   39.6513 C   0  0  0  0  0  0  0  0  0  0  0  0
   48.3858   -2.8604   40.7024 C   0  0  0  0  0  0  0  0  0  0  0  0
   47.3652   -1.9487   40.9592 C   0  0  0  0  0  0  0  0  0  0  0  0
   47.2269   -0.8238   40.1530 C   0  0  0  0  0  0  0  0  0  0  0  0
   46.4216   -2.1291   42.0324 C   0  0  0  0  0  0  0  0  0  0  0  0
   45.5729   -2.2904   42.8947 C   0  0  0  0  0  0  0  0  0  0  0  0
   44.5122   -2.4924   43.8487 C   0  0  0  0  0  0  0  0  0  0  0  0
   43.4556   -3.3679   43.6138 C   0  0  0  0  0  0  0  0  0  0  0  0
   42.4715   -3.5513   44.5674 C   0  0  0  0  0  0  0  0  0  0  0  0
   42.5525   -2.8331   45.7539 C   0  0  0  0  0  0  0  0  0  0  0  0
   43.5893   -1.9592   45.9895 C   0  0  0  0  0  0  0  0  0  0  0  0
   44.5711   -1.7859   45.0477 C   0  0  0  0  0  0  0  0  0  0  0  0
   45.8807   -0.6816   45.3601 Cl  0  0  0  0  0  0  0  0  0  0  0  0
   41.3781   -4.4825   44.3251 C   0  0  0  0  0  0  0  0  0  0  0  0
   41.1658   -5.7733   44.8707 C   0  0  0  0  0  0  0  0  0  0  0  0
   40.0321   -6.1775   44.2938 C   0  0  0  0  0  0  0  0  0  0  0  0
   39.5223   -5.2542   43.4412 N   0  0  0  0  0  0  0  0  0  0  0  0
   40.3878   -4.2166   43.4987 N   0  0  0  0  0  0  0  0  0  0  0  0
   38.3036   -5.2936   42.6207 C   0  0  0  0  0  0  0  0  0  0  0  0
   38.4488   -4.5204   41.2982 C   0  0  0  0  0  0  0  0  0  0  0  0
   37.9372   -5.3387   40.0926 C   0  0  0  0  0  0  0  0  0  0  0  0
   36.5648   -5.9363   40.3027 N   0  3  0  0  0  0  0  0  0  0  0  0
   35.5296   -5.3009   39.4070 C   0  0  0  0  0  0  0  0  0  0  0  0
   35.8090   -5.5768   37.9176 C   0  0  0  0  0  0  0  0  0  0  0  0
   35.7025   -7.3573   37.6043 S   0  0  0  0  0  0  0  0  0  0  0  0
   36.9184   -7.9460   38.8108 C   0  0  0  0  0  0  0  0  0  0  0  0
   36.5664   -7.4437   40.2249 C   0  0  0  0  0  0  0  0  0  0  0  0
   39.4092   -7.5359   44.5571 C   0  0  0  0  0  0  0  0  0  0  0  0
   39.9154   -8.2081   45.8550 C   0  0  0  0  0  0  0  0  0  0  0  0
   41.2879   -7.8694   46.3025 N   0  0  0  0  0  0  0  0  0  0  0  0
   41.9482   -6.6172   45.8679 C   0  0  0  0  0  0  0  0  0  0  0  0
   41.9656   -8.6684   47.1652 C   0  0  0  0  0  0  0  0  0  0  0  0
   43.1627   -8.4803   47.4086 O   0  0  0  0  0  0  0  0  0  0  0  0
   41.3044   -9.6705   47.7803 N   0  0  0  0  0  0  0  0  0  0  0  0
   50.3530   -3.6247   39.3136 C   0  0  0  0  0  0  0  0  0  0  0  0
   50.6430   -3.7037   37.8369 N   0  3  0  0  0  0  0  0  0  0  0  0
   51.7588   -4.6455   37.4641 C   0  0  0  0  0  0  0  0  0  0  0  0
   51.3452   -5.7453   36.4953 C   0  0  0  0  0  0  0  0  0  0  0  0
   51.7976   -5.6888   35.1953 C   0  0  0  0  0  0  0  0  0  0  0  0
   51.4626   -6.6756   34.2963 C   0  0  0  0  0  0  0  0  0  0  0  0
   50.6687   -7.7263   34.6934 C   0  0  0  0  0  0  0  0  0  0  0  0
   50.2120   -7.7898   35.9904 C   0  0  0  0  0  0  0  0  0  0  0  0
   50.5536   -6.8035   36.8886 C   0  0  0  0  0  0  0  0  0  0  0  0
   49.2060   -9.1162   36.4941 Cl  0  0  0  0  0  0  0  0  0  0  0  0
   47.9994    0.2029   38.5412 H   0  0  0  0  0  0  0  0  0  0  0  0
   49.7347   -1.3594   38.1064 H   0  0  0  0  0  0  0  0  0  0  0  0
   48.4940   -3.6696   41.2799 H   0  0  0  0  0  0  0  0  0  0  0  0
   46.4919   -0.1696   40.3312 H   0  0  0  0  0  0  0  0  0  0  0  0
   43.4081   -3.8677   42.7490 H   0  0  0  0  0  0  0  0  0  0  0  0
   41.8443   -2.9533   46.4497 H   0  0  0  0  0  0  0  0  0  0  0  0
   43.6271   -1.4496   46.8491 H   0  0  0  0  0  0  0  0  0  0  0  0
   37.5509   -4.8957   43.1452 H   0  0  0  0  0  0  0  0  0  0  0  0
   38.1273   -6.2505   42.3903 H   0  0  0  0  0  0  0  0  0  0  0  0
   39.4136   -4.2992   41.1557 H   0  0  0  0  0  0  0  0  0  0  0  0
   37.8965   -3.6893   41.3634 H   0  0  0  0  0  0  0  0  0  0  0  0
   38.5837   -6.0807   39.9156 H   0  0  0  0  0  0  0  0  0  0  0  0
   37.8644   -4.7072   39.3206 H   0  0  0  0  0  0  0  0  0  0  0  0
   36.3253   -5.7414   41.1589 H   0  0  0  0  0  0  0  0  0  0  0  0
   35.5300   -4.3128   39.5607 H   0  0  0  0  0  0  0  0  0  0  0  0
   34.6401   -5.6986   39.6322 H   0  0  0  0  0  0  0  0  0  0  0  0
   36.7237   -5.2483   37.6819 H   0  0  0  0  0  0  0  0  0  0  0  0
   35.1322   -5.0994   37.3572 H   0  0  0  0  0  0  0  0  0  0  0  0
   37.8253   -7.6103   38.5562 H   0  0  0  0  0  0  0  0  0  0  0  0
   36.9111   -8.9460   38.8141 H   0  0  0  0  0  0  0  0  0  0  0  0
   35.6593   -7.7826   40.4746 H   0  0  0  0  0  0  0  0  0  0  0  0
   37.2626   -7.7856   40.8560 H   0  0  0  0  0  0  0  0  0  0  0  0
   39.6182   -8.1360   43.7850 H   0  0  0  0  0  0  0  0  0  0  0  0
   38.4260   -7.3909   44.6677 H   0  0  0  0  0  0  0  0  0  0  0  0
   39.8770   -9.1979   45.7175 H   0  0  0  0  0  0  0  0  0  0  0  0
   39.3171   -7.8589   46.5762 H   0  0  0  0  0  0  0  0  0  0  0  0
   42.1182   -6.0584   46.6795 H   0  0  0  0  0  0  0  0  0  0  0  0
   42.7815   -6.8996   45.3927 H   0  0  0  0  0  0  0  0  0  0  0  0
   40.4431   -9.7862   47.6610 H   0  0  0  0  0  0  0  0  0  0  0  0
   41.7412  -10.2076   48.3236 H   0  0  0  0  0  0  0  0  0  0  0  0
   50.0859   -4.5325   39.6370 H   0  0  0  0  0  0  0  0  0  0  0  0
   51.1854   -3.3001   39.7627 H   0  0  0  0  0  0  0  0  0  0  0  0
   49.8833   -3.9672   37.4105 H   0  0  0  0  0  0  0  0  0  0  0  0
   50.8031   -2.8717   37.5020 H   0  0  0  0  0  0  0  0  0  0  0  0
   52.1036   -5.0729   38.2998 H   0  0  0  0  0  0  0  0  0  0  0  0
   52.4544   -4.0987   36.9981 H   0  0  0  0  0  0  0  0  0  0  0  0
   52.3734   -4.9253   34.9027 H   0  0  0  0  0  0  0  0  0  0  0  0
   51.7963   -6.6288   33.3549 H   0  0  0  0  0  0  0  0  0  0  0  0
   50.4236   -8.4431   34.0406 H   0  0  0  0  0  0  0  0  0  0  0  0
   50.2256   -6.8550   37.8318 H   0  0  0  0  0  0  0  0  0  0  0  0
  1  2  2  0  0  0  0
  1  6  1  0  0  0  0
  1 47  1  0  0  0  0
  2  3  1  0  0  0  0
  2 48  1  0  0  0  0
  3  4  2  0  0  0  0
  3 37  1  0  0  0  0
  4  5  1  0  0  0  0
  4 49  1  0  0  0  0
  5  6  2  0  0  0  0
  5  7  1  0  0  0  0
  6 50  1  0  0  0  0
  7  8  3  0  0  0  0
  8  9  1  0  0  0  0
  9 10  2  0  0  0  0
  9 14  1  0  0  0  0
 10 11  1  0  0  0  0
 10 51  1  0  0  0  0
 11 12  2  0  0  0  0
 11 16  1  0  0  0  0
 12 13  1  0  0  0  0
 12 52  1  0  0  0  0
 13 14  2  0  0  0  0
 13 53  1  0  0  0  0
 14 15  1  0  0  0  0
 16 17  1  0  0  0  0
 16 20  2  0  0  0  0
 17 18  2  0  0  0  0
 17 33  1  0  0  0  0
 18 19  1  0  0  0  0
 18 30  1  0  0  0  0
 19 20  1  0  0  0  0
 19 21  1  0  0  0  0
 21 22  1  0  0  0  0
 21 54  1  0  0  0  0
 21 55  1  0  0  0  0
 22 23  1  0  0  0  0
 22 56  1  0  0  0  0
 22 57  1  0  0  0  0
 23 24  1  0  0  0  0
 23 58  1  0  0  0  0
 23 59  1  0  0  0  0
 24 25  1  0  0  0  0
 24 29  1  0  0  0  0
 24 60  1  0  0  0  0
 25 26  1  0  0  0  0
 25 61  1  0  0  0  0
 25 62  1  0  0  0  0
 26 27  1  0  0  0  0
 26 63  1  0  0  0  0
 26 64  1  0  0  0  0
 27 28  1  0  0  0  0
 28 29  1  0  0  0  0
 28 65  1  0  0  0  0
 28 66  1  0  0  0  0
 29 67  1  0  0  0  0
 29 68  1  0  0  0  0
 30 31  1  0  0  0  0
 30 69  1  0  0  0  0
 30 70  1  0  0  0  0
 31 32  1  0  0  0  0
 31 71  1  0  0  0  0
 31 72  1  0  0  0  0
 32 33  1  0  0  0  0
 32 34  1  0  0  0  0
 33 73  1  0  0  0  0
 33 74  1  0  0  0  0
 34 35  2  0  0  0  0
 34 36  1  0  0  0  0
 36 75  1  0  0  0  0
 36 76  1  0  0  0  0
 37 38  1  0  0  0  0
 37 77  1  0  0  0  0
 37 78  1  0  0  0  0
 38 39  1  0  0  0  0
 38 79  1  0  0  0  0
 38 80  1  0  0  0  0
 39 40  1  0  0  0  0
 39 81  1  0  0  0  0
 39 82  1  0  0  0  0
 40 41  2  0  0  0  0
 40 45  1  0  0  0  0
 41 42  1  0  0  0  0
 41 83  1  0  0  0  0
 42 43  2  0  0  0  0
 42 84  1  0  0  0  0
 43 44  1  0  0  0  0
 43 85  1  0  0  0  0
 44 45  2  0  0  0  0
 44 46  1  0  0  0  0
 45 86  1  0  0  0  0
M  CHG  2  24   1  38   1
M  END
