CatS_260:1_D
 OpenBabel12041818463D

 99105  0  0  0  0  0  0  0  0999 V2000
   38.2529   -4.9023   39.5126 C   0  0  0  0  0  0  0  0  0  0  0  0
   37.5233   -4.7952   41.1697 S   0  0  0  0  0  0  0  0  0  0  0  0
   36.3441   -5.5986   41.1844 O   0  0  0  0  0  0  0  0  0  0  0  0
   37.4143   -3.4163   41.5194 O   0  0  0  0  0  0  0  0  0  0  0  0
   38.5457   -5.4677   42.2386 N   0  0  0  0  0  0  0  0  0  0  0  0
   38.7987   -6.9172   42.1083 C   0  0  0  0  0  0  0  0  0  0  0  0
   39.3096   -7.5225   43.4352 C   0  0  0  0  0  0  0  0  0  0  0  0
   40.4026   -6.6606   44.0411 C   0  0  0  0  0  0  0  0  0  0  0  0
   40.6396   -5.4143   43.6246 C   0  0  0  0  0  0  0  0  0  0  0  0
   41.7261   -4.9960   44.4328 C   0  0  0  0  0  0  0  0  0  0  0  0
   42.0310   -5.9793   45.2522 N   0  0  0  0  0  0  0  0  0  0  0  0
   41.2260   -7.0443   45.0471 N   0  0  0  0  0  0  0  0  0  0  0  0
   41.2440   -8.2819   45.8380 C   0  0  0  0  0  0  0  0  0  0  0  0
   42.4992   -8.4781   46.7062 C   0  0  0  0  0  0  0  0  0  0  0  0
   42.1659   -8.0655   48.1540 C   0  0  0  0  0  0  0  0  0  0  0  0
   43.2707   -7.3243   48.8633 N   0  3  0  0  0  0  0  0  0  0  0  0
   43.5941   -5.9913   48.2463 C   0  0  0  0  0  0  0  0  0  0  0  0
   42.4516   -4.9792   48.4701 C   0  0  0  0  0  0  0  0  0  0  0  0
   41.8311   -4.9233   49.8151 N   0  0  0  0  0  0  0  0  0  0  0  0
   41.8045   -6.1972   50.5718 C   0  0  0  0  0  0  0  0  0  0  0  0
   42.9656   -7.1794   50.3274 C   0  0  0  0  0  0  0  0  0  0  0  0
   41.4210   -3.7176   50.3738 C   0  0  0  0  0  0  0  0  0  0  0  0
   41.7410   -2.4932   49.7687 C   0  0  0  0  0  0  0  0  0  0  0  0
   41.3343   -1.3205   50.3113 C   0  0  0  0  0  0  0  0  0  0  0  0
   40.6043   -1.3131   51.4620 N   0  3  0  0  0  0  0  0  0  0  0  0
   40.2852   -2.4810   52.0875 C   0  0  0  0  0  0  0  0  0  0  0  0
   40.6815   -3.6667   51.5656 C   0  0  0  0  0  0  0  0  0  0  0  0
   42.4599   -3.7401   44.4349 C   0  0  0  0  0  0  0  0  0  0  0  0
   42.0815   -2.6466   45.2062 C   0  0  0  0  0  0  0  0  0  0  0  0
   42.8132   -1.4786   45.1838 C   0  0  0  0  0  0  0  0  0  0  0  0
   43.9314   -1.3747   44.3932 C   0  0  0  0  0  0  0  0  0  0  0  0
   44.3224   -2.4578   43.6115 C   0  0  0  0  0  0  0  0  0  0  0  0
   43.5824   -3.6331   43.6427 C   0  0  0  0  0  0  0  0  0  0  0  0
   45.4769   -2.3632   42.7562 C   0  0  0  0  0  0  0  0  0  0  0  0
   46.4409   -2.2641   42.0150 C   0  0  0  0  0  0  0  0  0  0  0  0
   47.5578   -2.1180   41.1179 C   0  0  0  0  0  0  0  0  0  0  0  0
   47.3722   -1.6700   39.8152 C   0  0  0  0  0  0  0  0  0  0  0  0
   48.4419   -1.6003   38.9598 C   0  0  0  0  0  0  0  0  0  0  0  0
   49.7070   -1.9686   39.3739 C   0  0  0  0  0  0  0  0  0  0  0  0
   49.8932   -2.3895   40.6784 C   0  0  0  0  0  0  0  0  0  0  0  0
   48.8340   -2.4633   41.5460 C   0  0  0  0  0  0  0  0  0  0  0  0
   50.8066   -1.9316   38.3169 C   0  0  0  0  0  0  0  0  0  0  0  0
   50.4144   -2.2826   36.8993 N   0  3  0  0  0  0  0  0  0  0  0  0
   51.3839   -3.1580   36.1410 C   0  0  0  0  0  0  0  0  0  0  0  0
   51.0561   -4.6446   36.1231 C   0  0  0  0  0  0  0  0  0  0  0  0
   50.3285   -5.1793   37.1631 C   0  0  0  0  0  0  0  0  0  0  0  0
   49.9853   -6.5112   37.1601 C   0  0  0  0  0  0  0  0  0  0  0  0
   50.3709   -7.3192   36.1143 C   0  0  0  0  0  0  0  0  0  0  0  0
   51.1054   -6.7922   35.0757 C   0  0  0  0  0  0  0  0  0  0  0  0
   51.4434   -5.4585   35.0802 C   0  0  0  0  0  0  0  0  0  0  0  0
   49.9228   -8.9997   36.1032 Cl  0  0  0  0  0  0  0  0  0  0  0  0
   44.8484    0.1033   44.3638 Cl  0  0  0  0  0  0  0  0  0  0  0  0
   39.8239   -4.7685   42.5095 C   0  0  0  0  0  0  0  0  0  0  0  0
   39.1426   -5.3543   39.5772 H   0  0  0  0  0  0  0  0  0  0  0  0
   37.6508   -5.4283   38.9118 H   0  0  0  0  0  0  0  0  0  0  0  0
   38.3674   -3.9835   39.1352 H   0  0  0  0  0  0  0  0  0  0  0  0
   39.4834   -7.0664   41.3949 H   0  0  0  0  0  0  0  0  0  0  0  0
   37.9376   -7.3664   41.8701 H   0  0  0  0  0  0  0  0  0  0  0  0
   39.6709   -8.4385   43.2606 H   0  0  0  0  0  0  0  0  0  0  0  0
   38.5463   -7.5667   44.0797 H   0  0  0  0  0  0  0  0  0  0  0  0
   41.1751   -9.0556   45.2082 H   0  0  0  0  0  0  0  0  0  0  0  0
   40.4733   -8.2204   46.4720 H   0  0  0  0  0  0  0  0  0  0  0  0
   43.2453   -7.9122   46.3552 H   0  0  0  0  0  0  0  0  0  0  0  0
   42.7843   -9.4364   46.6825 H   0  0  0  0  0  0  0  0  0  0  0  0
   41.9564   -8.8926   48.6756 H   0  0  0  0  0  0  0  0  0  0  0  0
   41.3921   -7.4344   48.0985 H   0  0  0  0  0  0  0  0  0  0  0  0
   44.0162   -7.8435   48.7957 H   0  0  0  0  0  0  0  0  0  0  0  0
   43.7387   -6.1116   47.2642 H   0  0  0  0  0  0  0  0  0  0  0  0
   44.4206   -5.6342   48.6814 H   0  0  0  0  0  0  0  0  0  0  0  0
   41.7281   -5.1943   47.8140 H   0  0  0  0  0  0  0  0  0  0  0  0
   42.8826   -4.0841   48.3560 H   0  0  0  0  0  0  0  0  0  0  0  0
   40.9534   -6.6689   50.3413 H   0  0  0  0  0  0  0  0  0  0  0  0
   41.8892   -5.9307   51.5319 H   0  0  0  0  0  0  0  0  0  0  0  0
   43.7816   -6.8445   50.7985 H   0  0  0  0  0  0  0  0  0  0  0  0
   42.6944   -8.0752   50.6796 H   0  0  0  0  0  0  0  0  0  0  0  0
   42.2771   -2.4859   48.9246 H   0  0  0  0  0  0  0  0  0  0  0  0
   41.5708   -0.4570   49.8659 H   0  0  0  0  0  0  0  0  0  0  0  0
   40.3018   -0.4433   51.8517 H   0  0  0  0  0  0  0  0  0  0  0  0
   39.7560   -2.4627   52.9358 H   0  0  0  0  0  0  0  0  0  0  0  0
   40.4441   -4.5168   52.0357 H   0  0  0  0  0  0  0  0  0  0  0  0
   41.2680   -2.7085   45.7846 H   0  0  0  0  0  0  0  0  0  0  0  0
   42.5282   -0.7026   45.7464 H   0  0  0  0  0  0  0  0  0  0  0  0
   43.8679   -4.4112   43.0833 H   0  0  0  0  0  0  0  0  0  0  0  0
   46.4616   -1.3994   39.5027 H   0  0  0  0  0  0  0  0  0  0  0  0
   48.3041   -1.2784   38.0231 H   0  0  0  0  0  0  0  0  0  0  0  0
   50.8086   -2.6423   40.9915 H   0  0  0  0  0  0  0  0  0  0  0  0
   48.9799   -2.7660   42.4878 H   0  0  0  0  0  0  0  0  0  0  0  0
   51.5207   -2.5713   38.6013 H   0  0  0  0  0  0  0  0  0  0  0  0
   51.0909   -0.9738   38.2745 H   0  0  0  0  0  0  0  0  0  0  0  0
   50.3266   -1.5197   36.4146 H   0  0  0  0  0  0  0  0  0  0  0  0
   49.5796   -2.6468   36.8810 H   0  0  0  0  0  0  0  0  0  0  0  0
   52.2881   -3.0453   36.5526 H   0  0  0  0  0  0  0  0  0  0  0  0
   51.3340   -2.8579   35.1884 H   0  0  0  0  0  0  0  0  0  0  0  0
   50.0480   -4.5956   37.9251 H   0  0  0  0  0  0  0  0  0  0  0  0
   49.4556   -6.8927   37.9176 H   0  0  0  0  0  0  0  0  0  0  0  0
   51.3931   -7.3786   34.3185 H   0  0  0  0  0  0  0  0  0  0  0  0
   51.9731   -5.0773   34.3225 H   0  0  0  0  0  0  0  0  0  0  0  0
   39.6221   -3.8235   42.7667 H   0  0  0  0  0  0  0  0  0  0  0  0
   40.3723   -4.8201   41.6749 H   0  0  0  0  0  0  0  0  0  0  0  0
  1  2  1  0  0  0  0
  1 54  1  0  0  0  0
  1 55  1  0  0  0  0
  1 56  1  0  0  0  0
  2  3  2  0  0  0  0
  2  4  2  0  0  0  0
  2  5  1  0  0  0  0
  5  6  1  0  0  0  0
  5 53  1  0  0  0  0
  6  7  1  0  0  0  0
  6 57  1  0  0  0  0
  6 58  1  0  0  0  0
  7  8  1  0  0  0  0
  7 59  1  0  0  0  0
  7 60  1  0  0  0  0
  8  9  2  0  0  0  0
  8 12  1  0  0  0  0
  9 10  1  0  0  0  0
  9 53  1  0  0  0  0
 10 11  2  0  0  0  0
 10 28  1  0  0  0  0
 11 12  1  0  0  0  0
 12 13  1  0  0  0  0
 13 14  1  0  0  0  0
 13 61  1  0  0  0  0
 13 62  1  0  0  0  0
 14 15  1  0  0  0  0
 14 63  1  0  0  0  0
 14 64  1  0  0  0  0
 15 16  1  0  0  0  0
 15 65  1  0  0  0  0
 15 66  1  0  0  0  0
 16 17  1  0  0  0  0
 16 21  1  0  0  0  0
 16 67  1  0  0  0  0
 17 18  1  0  0  0  0
 17 68  1  0  0  0  0
 17 69  1  0  0  0  0
 18 19  1  0  0  0  0
 18 70  1  0  0  0  0
 18 71  1  0  0  0  0
 19 20  1  0  0  0  0
 19 22  1  0  0  0  0
 20 21  1  0  0  0  0
 20 72  1  0  0  0  0
 20 73  1  0  0  0  0
 21 74  1  0  0  0  0
 21 75  1  0  0  0  0
 22 23  2  0  0  0  0
 22 27  1  0  0  0  0
 23 24  1  0  0  0  0
 23 76  1  0  0  0  0
 24 25  2  0  0  0  0
 24 77  1  0  0  0  0
 25 26  1  0  0  0  0
 25 78  1  0  0  0  0
 26 27  2  0  0  0  0
 26 79  1  0  0  0  0
 27 80  1  0  0  0  0
 28 29  2  0  0  0  0
 28 33  1  0  0  0  0
 29 30  1  0  0  0  0
 29 81  1  0  0  0  0
 30 31  2  0  0  0  0
 30 82  1  0  0  0  0
 31 32  1  0  0  0  0
 31 52  1  0  0  0  0
 32 33  2  0  0  0  0
 32 34  1  0  0  0  0
 33 83  1  0  0  0  0
 34 35  3  0  0  0  0
 35 36  1  0  0  0  0
 36 37  2  0  0  0  0
 36 41  1  0  0  0  0
 37 38  1  0  0  0  0
 37 84  1  0  0  0  0
 38 39  2  0  0  0  0
 38 85  1  0  0  0  0
 39 40  1  0  0  0  0
 39 42  1  0  0  0  0
 40 41  2  0  0  0  0
 40 86  1  0  0  0  0
 41 87  1  0  0  0  0
 42 43  1  0  0  0  0
 42 88  1  0  0  0  0
 42 89  1  0  0  0  0
 43 44  1  0  0  0  0
 43 90  1  0  0  0  0
 43 91  1  0  0  0  0
 44 45  1  0  0  0  0
 44 92  1  0  0  0  0
 44 93  1  0  0  0  0
 45 46  2  0  0  0  0
 45 50  1  0  0  0  0
 46 47  1  0  0  0  0
 46 94  1  0  0  0  0
 47 48  2  0  0  0  0
 47 95  1  0  0  0  0
 48 49  1  0  0  0  0
 48 51  1  0  0  0  0
 49 50  2  0  0  0  0
 49 96  1  0  0  0  0
 50 97  1  0  0  0  0
 53 98  1  0  0  0  0
 53 99  1  0  0  0  0
M  CHG  3  16   1  25   1  43   1
M  END
