CatS_127:1_D
 OpenBabel12041818463D

 89 94  0  0  0  0  0  0  0  0999 V2000
   41.6028   -6.5745   49.6470 C   0  0  0  0  0  0  0  0  0  0  0  0
   42.4196   -7.8472   48.6455 S   0  0  0  0  0  0  0  0  0  0  0  0
   43.8161   -7.5595   48.6075 O   0  0  0  0  0  0  0  0  0  0  0  0
   42.0330   -9.1227   49.1532 O   0  0  0  0  0  0  0  0  0  0  0  0
   41.8574   -7.7736   47.1186 N   0  0  0  0  0  0  0  0  0  0  0  0
   40.4576   -8.1754   46.8551 C   0  0  0  0  0  0  0  0  0  0  0  0
   40.1813   -8.3431   45.3420 C   0  0  0  0  0  0  0  0  0  0  0  0
   40.6332   -7.1097   44.5840 C   0  0  0  0  0  0  0  0  0  0  0  0
   41.5114   -6.2519   45.1023 C   0  0  0  0  0  0  0  0  0  0  0  0
   41.6226   -5.2444   44.1154 C   0  0  0  0  0  0  0  0  0  0  0  0
   40.8425   -5.5715   43.1025 N   0  0  0  0  0  0  0  0  0  0  0  0
   40.2047   -6.7422   43.3526 N   0  0  0  0  0  0  0  0  0  0  0  0
   39.2174   -7.3828   42.4735 C   0  0  0  0  0  0  0  0  0  0  0  0
   39.4530   -7.1867   40.9664 C   0  0  0  0  0  0  0  0  0  0  0  0
   38.1554   -7.3675   40.1481 C   0  0  0  0  0  0  0  0  0  0  0  0
   37.8218   -6.2036   39.2442 N   0  3  0  0  0  0  0  0  0  0  0  0
   36.5442   -6.4091   38.4701 C   0  0  0  0  0  0  0  0  0  0  0  0
   35.3279   -6.2347   39.4004 C   0  0  0  0  0  0  0  0  0  0  0  0
   35.3420   -4.9009   40.0209 N   0  0  0  0  0  0  0  0  0  0  0  0
   36.5561   -4.7456   40.8380 C   0  0  0  0  0  0  0  0  0  0  0  0
   37.8274   -4.8845   39.9757 C   0  0  0  0  0  0  0  0  0  0  0  0
   42.4222   -4.0281   44.1565 C   0  0  0  0  0  0  0  0  0  0  0  0
   42.1666   -3.0879   45.1471 C   0  0  0  0  0  0  0  0  0  0  0  0
   42.9041   -1.9289   45.2349 C   0  0  0  0  0  0  0  0  0  0  0  0
   43.9116   -1.6911   44.3376 C   0  0  0  0  0  0  0  0  0  0  0  0
   44.1828   -2.6139   43.3302 C   0  0  0  0  0  0  0  0  0  0  0  0
   43.4310   -3.7837   43.2400 C   0  0  0  0  0  0  0  0  0  0  0  0
   45.2620   -2.2424   42.4510 C   0  0  0  0  0  0  0  0  0  0  0  0
   46.1686   -2.0872   41.6480 C   0  0  0  0  0  0  0  0  0  0  0  0
   47.2066   -2.0809   40.6498 C   0  0  0  0  0  0  0  0  0  0  0  0
   48.5312   -1.7356   40.9022 C   0  0  0  0  0  0  0  0  0  0  0  0
   49.4742   -1.8965   39.9144 C   0  0  0  0  0  0  0  0  0  0  0  0
   49.1148   -2.3800   38.6690 C   0  0  0  0  0  0  0  0  0  0  0  0
   47.7899   -2.6583   38.4067 C   0  0  0  0  0  0  0  0  0  0  0  0
   46.8444   -2.5259   39.3851 C   0  0  0  0  0  0  0  0  0  0  0  0
   50.1361   -2.6356   37.5651 C   0  0  0  0  0  0  0  0  0  0  0  0
   50.3076   -4.0978   37.2121 N   0  3  0  0  0  0  0  0  0  0  0  0
   51.5501   -4.4445   36.4279 C   0  0  0  0  0  0  0  0  0  0  0  0
   51.4594   -5.7054   35.5791 C   0  0  0  0  0  0  0  0  0  0  0  0
   52.4270   -5.9097   34.6195 C   0  0  0  0  0  0  0  0  0  0  0  0
   52.4217   -7.0504   33.8524 C   0  0  0  0  0  0  0  0  0  0  0  0
   51.4451   -8.0007   34.0424 C   0  0  0  0  0  0  0  0  0  0  0  0
   50.4667   -7.7994   34.9908 C   0  0  0  0  0  0  0  0  0  0  0  0
   50.4759   -6.6558   35.7576 C   0  0  0  0  0  0  0  0  0  0  0  0
   51.4627   -9.4561   33.0921 Cl  0  0  0  0  0  0  0  0  0  0  0  0
   44.8415   -0.2214   44.4547 Cl  0  0  0  0  0  0  0  0  0  0  0  0
   42.1214   -6.4593   46.4830 C   0  0  0  0  0  0  0  0  0  0  0  0
   40.9613   -6.0685   49.0704 H   0  0  0  0  0  0  0  0  0  0  0  0
   41.1092   -7.0047   50.4027 H   0  0  0  0  0  0  0  0  0  0  0  0
   42.2878   -5.9487   50.0199 H   0  0  0  0  0  0  0  0  0  0  0  0
   39.8444   -7.4764   47.2228 H   0  0  0  0  0  0  0  0  0  0  0  0
   40.3001   -9.0583   47.2975 H   0  0  0  0  0  0  0  0  0  0  0  0
   39.2015   -8.4815   45.1974 H   0  0  0  0  0  0  0  0  0  0  0  0
   40.6900   -9.1352   45.0045 H   0  0  0  0  0  0  0  0  0  0  0  0
   38.3159   -7.0130   42.6983 H   0  0  0  0  0  0  0  0  0  0  0  0
   39.2976   -8.3658   42.6385 H   0  0  0  0  0  0  0  0  0  0  0  0
   40.1296   -7.8538   40.6545 H   0  0  0  0  0  0  0  0  0  0  0  0
   39.7779   -6.2517   40.8242 H   0  0  0  0  0  0  0  0  0  0  0  0
   37.3969   -7.4986   40.7865 H   0  0  0  0  0  0  0  0  0  0  0  0
   38.3008   -8.1576   39.5527 H   0  0  0  0  0  0  0  0  0  0  0  0
   38.4902   -6.1504   38.6266 H   0  0  0  0  0  0  0  0  0  0  0  0
   36.5364   -7.3299   38.0801 H   0  0  0  0  0  0  0  0  0  0  0  0
   36.4935   -5.7315   37.7363 H   0  0  0  0  0  0  0  0  0  0  0  0
   35.3555   -6.9335   40.1153 H   0  0  0  0  0  0  0  0  0  0  0  0
   34.4914   -6.3307   38.8610 H   0  0  0  0  0  0  0  0  0  0  0  0
   35.2206   -4.1429   39.3384 H   0  0  0  0  0  0  0  0  0  0  0  0
   36.5637   -5.4469   41.5507 H   0  0  0  0  0  0  0  0  0  0  0  0
   36.5492   -3.8329   41.2464 H   0  0  0  0  0  0  0  0  0  0  0  0
   37.8620   -4.1375   39.3117 H   0  0  0  0  0  0  0  0  0  0  0  0
   38.6292   -4.8466   40.5718 H   0  0  0  0  0  0  0  0  0  0  0  0
   41.4346   -3.2559   45.8073 H   0  0  0  0  0  0  0  0  0  0  0  0
   42.7048   -1.2616   45.9525 H   0  0  0  0  0  0  0  0  0  0  0  0
   43.6197   -4.4456   42.5145 H   0  0  0  0  0  0  0  0  0  0  0  0
   48.7953   -1.3729   41.7960 H   0  0  0  0  0  0  0  0  0  0  0  0
   50.4288   -1.6617   40.0979 H   0  0  0  0  0  0  0  0  0  0  0  0
   47.5184   -2.9597   37.4928 H   0  0  0  0  0  0  0  0  0  0  0  0
   45.8896   -2.7500   39.1896 H   0  0  0  0  0  0  0  0  0  0  0  0
   51.0202   -2.2755   37.8631 H   0  0  0  0  0  0  0  0  0  0  0  0
   49.7945   -2.1789   36.7436 H   0  0  0  0  0  0  0  0  0  0  0  0
   50.3141   -4.5756   37.9870 H   0  0  0  0  0  0  0  0  0  0  0  0
   49.5709   -4.4040   36.7723 H   0  0  0  0  0  0  0  0  0  0  0  0
   52.3029   -4.5599   37.0760 H   0  0  0  0  0  0  0  0  0  0  0  0
   51.6871   -3.6914   35.7843 H   0  0  0  0  0  0  0  0  0  0  0  0
   53.1393   -5.2219   34.4797 H   0  0  0  0  0  0  0  0  0  0  0  0
   53.1269   -7.1894   33.1571 H   0  0  0  0  0  0  0  0  0  0  0  0
   49.7497   -8.4839   35.1224 H   0  0  0  0  0  0  0  0  0  0  0  0
   49.7659   -6.5136   36.4474 H   0  0  0  0  0  0  0  0  0  0  0  0
   43.1122   -6.3502   46.4022 H   0  0  0  0  0  0  0  0  0  0  0  0
   41.6848   -5.7811   47.0742 H   0  0  0  0  0  0  0  0  0  0  0  0
  1  2  1  0  0  0  0
  1 48  1  0  0  0  0
  1 49  1  0  0  0  0
  1 50  1  0  0  0  0
  2  3  2  0  0  0  0
  2  4  2  0  0  0  0
  2  5  1  0  0  0  0
  5  6  1  0  0  0  0
  5 47  1  0  0  0  0
  6  7  1  0  0  0  0
  6 51  1  0  0  0  0
  6 52  1  0  0  0  0
  7  8  1  0  0  0  0
  7 53  1  0  0  0  0
  7 54  1  0  0  0  0
  8  9  2  0  0  0  0
  8 12  1  0  0  0  0
  9 10  1  0  0  0  0
  9 47  1  0  0  0  0
 10 11  2  0  0  0  0
 10 22  1  0  0  0  0
 11 12  1  0  0  0  0
 12 13  1  0  0  0  0
 13 14  1  0  0  0  0
 13 55  1  0  0  0  0
 13 56  1  0  0  0  0
 14 15  1  0  0  0  0
 14 57  1  0  0  0  0
 14 58  1  0  0  0  0
 15 16  1  0  0  0  0
 15 59  1  0  0  0  0
 15 60  1  0  0  0  0
 16 17  1  0  0  0  0
 16 21  1  0  0  0  0
 16 61  1  0  0  0  0
 17 18  1  0  0  0  0
 17 62  1  0  0  0  0
 17 63  1  0  0  0  0
 18 19  1  0  0  0  0
 18 64  1  0  0  0  0
 18 65  1  0  0  0  0
 19 20  1  0  0  0  0
 19 66  1  0  0  0  0
 20 21  1  0  0  0  0
 20 67  1  0  0  0  0
 20 68  1  0  0  0  0
 21 69  1  0  0  0  0
 21 70  1  0  0  0  0
 22 23  2  0  0  0  0
 22 27  1  0  0  0  0
 23 24  1  0  0  0  0
 23 71  1  0  0  0  0
 24 25  2  0  0  0  0
 24 72  1  0  0  0  0
 25 26  1  0  0  0  0
 25 46  1  0  0  0  0
 26 27  2  0  0  0  0
 26 28  1  0  0  0  0
 27 73  1  0  0  0  0
 28 29  3  0  0  0  0
 29 30  1  0  0  0  0
 30 31  2  0  0  0  0
 30 35  1  0  0  0  0
 31 32  1  0  0  0  0
 31 74  1  0  0  0  0
 32 33  2  0  0  0  0
 32 75  1  0  0  0  0
 33 34  1  0  0  0  0
 33 36  1  0  0  0  0
 34 35  2  0  0  0  0
 34 76  1  0  0  0  0
 35 77  1  0  0  0  0
 36 37  1  0  0  0  0
 36 78  1  0  0  0  0
 36 79  1  0  0  0  0
 37 38  1  0  0  0  0
 37 80  1  0  0  0  0
 37 81  1  0  0  0  0
 38 39  1  0  0  0  0
 38 82  1  0  0  0  0
 38 83  1  0  0  0  0
 39 40  2  0  0  0  0
 39 44  1  0  0  0  0
 40 41  1  0  0  0  0
 40 84  1  0  0  0  0
 41 42  2  0  0  0  0
 41 85  1  0  0  0  0
 42 43  1  0  0  0  0
 42 45  1  0  0  0  0
 43 44  2  0  0  0  0
 43 86  1  0  0  0  0
 44 87  1  0  0  0  0
 47 88  1  0  0  0  0
 47 89  1  0  0  0  0
M  CHG  2  16   1  37   1
M  END
