CatS_320:1_D
 OpenBabel12041818463D

 87 92  0  0  1  0  0  0  0  0999 V2000
   41.0925   -0.2139   48.9781 C   0  0  0  0  0  0  0  0  0  0  0  0
   42.7379   -0.9542   49.1861 S   0  0  0  0  0  0  0  0  0  0  0  0
   42.5918   -2.2223   49.8235 O   0  0  0  0  0  0  0  0  0  0  0  0
   43.5991   -0.0158   49.8273 O   0  0  0  0  0  0  0  0  0  0  0  0
   43.2917   -1.1885   47.6826 N   0  0  0  0  0  0  0  0  0  0  0  0
   43.5830    0.0003   46.8584 C   0  0  0  0  0  0  0  0  0  0  0  0
   44.5749   -0.3573   45.7316 C   0  0  0  0  0  0  0  0  0  0  0  0
   44.1160   -1.5872   44.9634 C   0  0  0  0  0  0  0  0  0  0  0  0
   43.1930   -2.4022   45.4821 C   0  0  0  0  0  0  0  0  0  0  0  0
   43.0121   -3.3850   44.4840 C   0  0  0  0  0  0  0  0  0  0  0  0
   43.8359   -3.1161   43.4947 N   0  0  0  0  0  0  0  0  0  0  0  0
   44.5689   -2.0055   43.7492 N   0  0  0  0  0  0  0  0  0  0  0  0
   45.7413   -1.6067   42.9522 C   0  0  0  0  0  0  0  0  0  0  0  0
   45.6541   -0.7274   41.6858 C   0  0  2  0  0  0  0  0  0  0  0  0
   46.9747   -0.7677   40.8933 C   0  0  0  0  0  0  0  0  0  0  0  0
   47.3612   -2.1090   40.3200 N   0  3  2  0  0  0  0  0  0  0  0  0
   48.7609   -2.5466   40.6966 C   0  0  0  0  0  0  0  0  0  0  0  0
   49.1908   -3.8438   39.9750 C   0  0  0  0  0  0  0  0  0  0  0  0
   48.9881   -3.7997   38.4327 C   0  0  1  0  0  0  0  0  0  0  0  0
   48.3503   -2.4622   37.9947 C   0  0  0  0  0  0  0  0  0  0  0  0
   47.0901   -2.1682   38.8297 C   0  0  0  0  0  0  0  0  0  0  0  0
   50.3051   -4.1239   37.6724 C   0  0  0  0  0  0  0  0  0  0  0  0
   50.8365   -2.9299   36.8380 C   0  0  0  0  0  0  0  0  0  0  0  0
   52.1173   -3.3086   36.0669 C   0  0  0  0  0  0  0  0  0  0  0  0
   51.8649   -4.5263   35.2229 N   0  3  0  0  0  0  0  0  0  0  0  0
   51.3798   -5.7139   36.0061 C   0  0  0  0  0  0  0  0  0  0  0  0
   50.0748   -5.3328   36.7321 C   0  0  0  0  0  0  0  0  0  0  0  0
   45.3222    0.6276   42.0226 O   0  0  0  0  0  0  0  0  0  0  0  0
   42.1158   -4.5303   44.4774 C   0  0  0  0  0  0  0  0  0  0  0  0
   42.1843   -5.4991   45.4715 C   0  0  0  0  0  0  0  0  0  0  0  0
   41.3326   -6.5839   45.4580 C   0  0  0  0  0  0  0  0  0  0  0  0
   40.4001   -6.7196   44.4588 C   0  0  0  0  0  0  0  0  0  0  0  0
   40.3116   -5.7536   43.4609 C   0  0  0  0  0  0  0  0  0  0  0  0
   41.1718   -4.6610   43.4788 C   0  0  0  0  0  0  0  0  0  0  0  0
   39.3185   -5.9119   42.4296 C   0  0  0  0  0  0  0  0  0  0  0  0
   38.4974   -6.0518   41.5376 C   0  0  0  0  0  0  0  0  0  0  0  0
   37.5400   -6.2243   40.4757 C   0  0  0  0  0  0  0  0  0  0  0  0
   37.5051   -7.3965   39.7388 C   0  0  0  0  0  0  0  0  0  0  0  0
   36.5747   -7.5158   38.7492 C   0  0  0  0  0  0  0  0  0  0  0  0
   35.7022   -6.4751   38.5134 C   0  0  0  0  0  0  0  0  0  0  0  0
   35.7032   -5.3181   39.2066 N   0  0  0  0  0  0  0  0  0  0  0  0
   36.6296   -5.2217   40.1762 C   0  0  0  0  0  0  0  0  0  0  0  0
   39.3265   -8.0904   44.4439 Cl  0  0  0  0  0  0  0  0  0  0  0  0
   42.5769   -2.1924   46.8596 C   0  0  0  0  0  0  0  0  0  0  0  0
   44.9265   -1.0992   41.1092 H   0  0  0  0  0  0  0  0  0  0  0  0
   40.8996   -0.1183   48.0015 H   0  0  0  0  0  0  0  0  0  0  0  0
   40.4021   -0.8005   49.4017 H   0  0  0  0  0  0  0  0  0  0  0  0
   41.0696    0.6845   49.4164 H   0  0  0  0  0  0  0  0  0  0  0  0
   43.9793    0.7143   47.4356 H   0  0  0  0  0  0  0  0  0  0  0  0
   42.7316    0.3273   46.4483 H   0  0  0  0  0  0  0  0  0  0  0  0
   45.4740   -0.5361   46.1311 H   0  0  0  0  0  0  0  0  0  0  0  0
   44.6211    0.4125   45.0950 H   0  0  0  0  0  0  0  0  0  0  0  0
   46.1809   -2.4582   42.6663 H   0  0  0  0  0  0  0  0  0  0  0  0
   46.2045   -0.9867   43.5855 H   0  0  0  0  0  0  0  0  0  0  0  0
   47.7087   -0.4702   41.5039 H   0  0  0  0  0  0  0  0  0  0  0  0
   46.8340   -0.1693   40.1046 H   0  0  0  0  0  0  0  0  0  0  0  0
   46.7972   -2.7138   40.7024 H   0  0  0  0  0  0  0  0  0  0  0  0
   48.7956   -2.6997   41.6842 H   0  0  0  0  0  0  0  0  0  0  0  0
   49.3908   -1.8221   40.4166 H   0  0  0  0  0  0  0  0  0  0  0  0
   48.6563   -4.6039   40.3443 H   0  0  0  0  0  0  0  0  0  0  0  0
   50.1715   -3.9556   40.1359 H   0  0  0  0  0  0  0  0  0  0  0  0
   48.3412   -4.5200   38.1824 H   0  0  0  0  0  0  0  0  0  0  0  0
   48.1027   -2.5149   37.0272 H   0  0  0  0  0  0  0  0  0  0  0  0
   49.0117   -1.7258   38.1380 H   0  0  0  0  0  0  0  0  0  0  0  0
   46.7111   -1.2896   38.5391 H   0  0  0  0  0  0  0  0  0  0  0  0
   46.4501   -2.9207   38.6740 H   0  0  0  0  0  0  0  0  0  0  0  0
   50.9948   -4.3330   38.3657 H   0  0  0  0  0  0  0  0  0  0  0  0
   51.0368   -2.1659   37.4513 H   0  0  0  0  0  0  0  0  0  0  0  0
   50.1347   -2.6733   36.1734 H   0  0  0  0  0  0  0  0  0  0  0  0
   52.8533   -3.4990   36.7166 H   0  0  0  0  0  0  0  0  0  0  0  0
   52.3820   -2.5477   35.4743 H   0  0  0  0  0  0  0  0  0  0  0  0
   51.2656   -4.3244   34.5686 H   0  0  0  0  0  0  0  0  0  0  0  0
   52.6265   -4.7496   34.7761 H   0  0  0  0  0  0  0  0  0  0  0  0
   52.0729   -5.9830   36.6748 H   0  0  0  0  0  0  0  0  0  0  0  0
   51.2108   -6.4816   35.3879 H   0  0  0  0  0  0  0  0  0  0  0  0
   49.3769   -5.0965   36.0560 H   0  0  0  0  0  0  0  0  0  0  0  0
   49.7732   -6.1133   37.2797 H   0  0  0  0  0  0  0  0  0  0  0  0
   44.3347    0.7332   42.1840 H   0  0  0  0  0  0  0  0  0  0  0  0
   42.8584   -5.4087   46.2046 H   0  0  0  0  0  0  0  0  0  0  0  0
   41.3944   -7.2745   46.1785 H   0  0  0  0  0  0  0  0  0  0  0  0
   41.1060   -3.9653   42.7634 H   0  0  0  0  0  0  0  0  0  0  0  0
   38.1478   -8.1388   39.9284 H   0  0  0  0  0  0  0  0  0  0  0  0
   36.5259   -8.3501   38.1999 H   0  0  0  0  0  0  0  0  0  0  0  0
   35.0272   -6.5846   37.7837 H   0  0  0  0  0  0  0  0  0  0  0  0
   36.6643   -4.3783   40.7125 H   0  0  0  0  0  0  0  0  0  0  0  0
   41.6304   -1.8914   46.7429 H   0  0  0  0  0  0  0  0  0  0  0  0
   42.6388   -3.0655   47.3432 H   0  0  0  0  0  0  0  0  0  0  0  0
  1  2  1  0  0  0  0
  1 46  1  0  0  0  0
  1 47  1  0  0  0  0
  1 48  1  0  0  0  0
  2  3  2  0  0  0  0
  2  4  2  0  0  0  0
  2  5  1  0  0  0  0
  5  6  1  0  0  0  0
  5 44  1  0  0  0  0
  6  7  1  0  0  0  0
  6 49  1  0  0  0  0
  6 50  1  0  0  0  0
  7  8  1  0  0  0  0
  7 51  1  0  0  0  0
  7 52  1  0  0  0  0
  8  9  2  0  0  0  0
  8 12  1  0  0  0  0
  9 10  1  0  0  0  0
  9 44  1  0  0  0  0
 10 11  2  0  0  0  0
 10 29  1  0  0  0  0
 11 12  1  0  0  0  0
 12 13  1  0  0  0  0
 13 14  1  0  0  0  0
 13 53  1  0  0  0  0
 13 54  1  0  0  0  0
 14 15  1  0  0  0  0
 14 28  1  0  0  0  0
 14 45  1  6  0  0  0
 15 16  1  0  0  0  0
 15 55  1  0  0  0  0
 15 56  1  0  0  0  0
 16 17  1  0  0  0  0
 16 21  1  0  0  0  0
 16 57  1  1  0  0  0
 17 18  1  0  0  0  0
 17 58  1  0  0  0  0
 17 59  1  0  0  0  0
 18 19  1  0  0  0  0
 18 60  1  0  0  0  0
 18 61  1  0  0  0  0
 19 20  1  0  0  0  0
 19 22  1  0  0  0  0
 19 62  1  6  0  0  0
 20 21  1  0  0  0  0
 20 63  1  0  0  0  0
 20 64  1  0  0  0  0
 21 65  1  0  0  0  0
 21 66  1  0  0  0  0
 22 23  1  0  0  0  0
 22 27  1  0  0  0  0
 22 67  1  0  0  0  0
 23 24  1  0  0  0  0
 23 68  1  0  0  0  0
 23 69  1  0  0  0  0
 24 25  1  0  0  0  0
 24 70  1  0  0  0  0
 24 71  1  0  0  0  0
 25 26  1  0  0  0  0
 25 72  1  0  0  0  0
 25 73  1  0  0  0  0
 26 27  1  0  0  0  0
 26 74  1  0  0  0  0
 26 75  1  0  0  0  0
 27 76  1  0  0  0  0
 27 77  1  0  0  0  0
 28 78  1  0  0  0  0
 29 30  2  0  0  0  0
 29 34  1  0  0  0  0
 30 31  1  0  0  0  0
 30 79  1  0  0  0  0
 31 32  2  0  0  0  0
 31 80  1  0  0  0  0
 32 33  1  0  0  0  0
 32 43  1  0  0  0  0
 33 34  2  0  0  0  0
 33 35  1  0  0  0  0
 34 81  1  0  0  0  0
 35 36  3  0  0  0  0
 36 37  1  0  0  0  0
 37 38  2  0  0  0  0
 37 42  1  0  0  0  0
 38 39  1  0  0  0  0
 38 82  1  0  0  0  0
 39 40  2  0  0  0  0
 39 83  1  0  0  0  0
 40 41  1  0  0  0  0
 40 84  1  0  0  0  0
 41 42  2  0  0  0  0
 42 85  1  0  0  0  0
 44 86  1  0  0  0  0
 44 87  1  0  0  0  0
M  CHG  2  16   1  25   1
M  END
