CatS_238:1_D
 OpenBabel12041818463D

 76 81  0  0  0  0  0  0  0  0999 V2000
   40.5783    0.5080   49.4164 C   0  0  0  0  0  0  0  0  0  0  0  0
   40.8180    0.8072   47.6450 S   0  0  0  0  0  0  0  0  0  0  0  0
   41.0393    2.2065   47.4713 O   0  0  0  0  0  0  0  0  0  0  0  0
   39.7538    0.1631   46.9458 O   0  0  0  0  0  0  0  0  0  0  0  0
   42.1792    0.0757   47.1516 N   0  0  0  0  0  0  0  0  0  0  0  0
   43.4550    0.5696   47.7080 C   0  0  0  0  0  0  0  0  0  0  0  0
   44.6553    0.2091   46.8034 C   0  0  0  0  0  0  0  0  0  0  0  0
   44.5750   -1.2325   46.3327 C   0  0  0  0  0  0  0  0  0  0  0  0
   43.4683   -1.9671   46.4744 C   0  0  0  0  0  0  0  0  0  0  0  0
   43.8300   -3.2221   45.9249 C   0  0  0  0  0  0  0  0  0  0  0  0
   45.0714   -3.1413   45.5030 N   0  0  0  0  0  0  0  0  0  0  0  0
   45.5806   -1.9121   45.7270 N   0  0  0  0  0  0  0  0  0  0  0  0
   46.8925   -1.4557   45.2474 C   0  0  0  0  0  0  0  0  0  0  0  0
   47.6620   -2.4017   44.3051 C   0  0  0  0  0  0  0  0  0  0  0  0
   47.9399   -1.7507   42.9299 C   0  0  0  0  0  0  0  0  0  0  0  0
   46.9588   -2.1526   41.8580 N   0  3  0  0  0  0  0  0  0  0  0  0
   45.6779   -1.3565   41.8757 C   0  0  0  0  0  0  0  0  0  0  0  0
   44.7375   -1.8894   40.7767 C   0  0  0  0  0  0  0  0  0  0  0  0
   45.3848   -1.8373   39.4907 O   0  0  0  0  0  0  0  0  0  0  0  0
   46.5798   -2.6405   39.4437 C   0  0  0  0  0  0  0  0  0  0  0  0
   47.6000   -2.1594   40.4942 C   0  0  0  0  0  0  0  0  0  0  0  0
   43.0644   -4.4535   45.8196 C   0  0  0  0  0  0  0  0  0  0  0  0
   43.2877   -5.5636   46.6287 C   0  0  0  0  0  0  0  0  0  0  0  0
   42.5152   -6.6996   46.4925 C   0  0  0  0  0  0  0  0  0  0  0  0
   41.5099   -6.7506   45.5562 C   0  0  0  0  0  0  0  0  0  0  0  0
   41.2791   -5.6472   44.7397 C   0  0  0  0  0  0  0  0  0  0  0  0
   42.0575   -4.5079   44.8836 C   0  0  0  0  0  0  0  0  0  0  0  0
   40.2588   -5.6577   43.7244 C   0  0  0  0  0  0  0  0  0  0  0  0
   39.4210   -5.6494   42.8380 C   0  0  0  0  0  0  0  0  0  0  0  0
   38.4597   -5.6223   41.7665 C   0  0  0  0  0  0  0  0  0  0  0  0
   37.7391   -4.4520   41.5338 C   0  0  0  0  0  0  0  0  0  0  0  0
   36.8270   -4.3912   40.5099 C   0  0  0  0  0  0  0  0  0  0  0  0
   36.6360   -5.5038   39.7204 C   0  0  0  0  0  0  0  0  0  0  0  0
   37.3398   -6.6620   39.9467 C   0  0  0  0  0  0  0  0  0  0  0  0
   38.2554   -6.7416   40.9635 C   0  0  0  0  0  0  0  0  0  0  0  0
   36.9595   -7.7366   38.9543 C   0  0  0  0  0  0  0  0  0  0  0  0
   35.7114   -7.1423   38.3558 N   0  3  0  0  0  0  0  0  0  0  0  0
   35.6964   -5.6485   38.5459 C   0  0  0  0  0  0  0  0  0  0  0  0
   40.5384   -8.1844   45.3883 Cl  0  0  0  0  0  0  0  0  0  0  0  0
   42.1998   -1.4055   47.1090 C   0  0  0  0  0  0  0  0  0  0  0  0
   41.3326   -0.0535   49.7567 H   0  0  0  0  0  0  0  0  0  0  0  0
   40.5592    1.3793   49.9067 H   0  0  0  0  0  0  0  0  0  0  0  0
   39.7108    0.0328   49.5631 H   0  0  0  0  0  0  0  0  0  0  0  0
   43.5942    0.1638   48.6113 H   0  0  0  0  0  0  0  0  0  0  0  0
   43.4018    1.5664   47.7681 H   0  0  0  0  0  0  0  0  0  0  0  0
   45.5035    0.3406   47.3164 H   0  0  0  0  0  0  0  0  0  0  0  0
   44.6362    0.8045   46.0001 H   0  0  0  0  0  0  0  0  0  0  0  0
   47.4675   -1.2914   46.0489 H   0  0  0  0  0  0  0  0  0  0  0  0
   46.6988   -0.6442   44.6960 H   0  0  0  0  0  0  0  0  0  0  0  0
   47.1226   -3.2326   44.1686 H   0  0  0  0  0  0  0  0  0  0  0  0
   48.5429   -2.6108   44.7299 H   0  0  0  0  0  0  0  0  0  0  0  0
   48.8585   -2.0135   42.6348 H   0  0  0  0  0  0  0  0  0  0  0  0
   47.8483   -0.7624   43.0515 H   0  0  0  0  0  0  0  0  0  0  0  0
   46.7262   -3.0173   42.0313 H   0  0  0  0  0  0  0  0  0  0  0  0
   45.8794   -0.3913   41.7086 H   0  0  0  0  0  0  0  0  0  0  0  0
   45.2368   -1.4481   42.7685 H   0  0  0  0  0  0  0  0  0  0  0  0
   43.9074   -1.3323   40.7530 H   0  0  0  0  0  0  0  0  0  0  0  0
   44.5054   -2.8401   40.9825 H   0  0  0  0  0  0  0  0  0  0  0  0
   46.9867   -2.5738   38.5326 H   0  0  0  0  0  0  0  0  0  0  0  0
   46.3376   -3.5899   39.6434 H   0  0  0  0  0  0  0  0  0  0  0  0
   48.3899   -2.7725   40.4995 H   0  0  0  0  0  0  0  0  0  0  0  0
   47.8991   -1.2333   40.2641 H   0  0  0  0  0  0  0  0  0  0  0  0
   44.0145   -5.5382   47.3150 H   0  0  0  0  0  0  0  0  0  0  0  0
   42.6880   -7.4909   47.0790 H   0  0  0  0  0  0  0  0  0  0  0  0
   41.8844   -3.7153   44.2989 H   0  0  0  0  0  0  0  0  0  0  0  0
   37.8875   -3.6525   42.1158 H   0  0  0  0  0  0  0  0  0  0  0  0
   36.3094   -3.5527   40.3399 H   0  0  0  0  0  0  0  0  0  0  0  0
   38.7663   -7.5860   41.1253 H   0  0  0  0  0  0  0  0  0  0  0  0
   36.7741   -8.6088   39.4071 H   0  0  0  0  0  0  0  0  0  0  0  0
   37.6726   -7.9550   38.2881 H   0  0  0  0  0  0  0  0  0  0  0  0
   35.6034   -7.3778   37.4824 H   0  0  0  0  0  0  0  0  0  0  0  0
   34.9859   -7.4973   38.7773 H   0  0  0  0  0  0  0  0  0  0  0  0
   36.0377   -5.1684   37.7378 H   0  0  0  0  0  0  0  0  0  0  0  0
   34.7869   -5.2597   38.6927 H   0  0  0  0  0  0  0  0  0  0  0  0
   41.4105   -1.7214   46.5824 H   0  0  0  0  0  0  0  0  0  0  0  0
   42.1704   -1.7317   48.0538 H   0  0  0  0  0  0  0  0  0  0  0  0
  1  2  1  0  0  0  0
  1 41  1  0  0  0  0
  1 42  1  0  0  0  0
  1 43  1  0  0  0  0
  2  3  2  0  0  0  0
  2  4  2  0  0  0  0
  2  5  1  0  0  0  0
  5  6  1  0  0  0  0
  5 40  1  0  0  0  0
  6  7  1  0  0  0  0
  6 44  1  0  0  0  0
  6 45  1  0  0  0  0
  7  8  1  0  0  0  0
  7 46  1  0  0  0  0
  7 47  1  0  0  0  0
  8  9  2  0  0  0  0
  8 12  1  0  0  0  0
  9 10  1  0  0  0  0
  9 40  1  0  0  0  0
 10 11  2  0  0  0  0
 10 22  1  0  0  0  0
 11 12  1  0  0  0  0
 12 13  1  0  0  0  0
 13 14  1  0  0  0  0
 13 48  1  0  0  0  0
 13 49  1  0  0  0  0
 14 15  1  0  0  0  0
 14 50  1  0  0  0  0
 14 51  1  0  0  0  0
 15 16  1  0  0  0  0
 15 52  1  0  0  0  0
 15 53  1  0  0  0  0
 16 17  1  0  0  0  0
 16 21  1  0  0  0  0
 16 54  1  0  0  0  0
 17 18  1  0  0  0  0
 17 55  1  0  0  0  0
 17 56  1  0  0  0  0
 18 19  1  0  0  0  0
 18 57  1  0  0  0  0
 18 58  1  0  0  0  0
 19 20  1  0  0  0  0
 20 21  1  0  0  0  0
 20 59  1  0  0  0  0
 20 60  1  0  0  0  0
 21 61  1  0  0  0  0
 21 62  1  0  0  0  0
 22 23  2  0  0  0  0
 22 27  1  0  0  0  0
 23 24  1  0  0  0  0
 23 63  1  0  0  0  0
 24 25  2  0  0  0  0
 24 64  1  0  0  0  0
 25 26  1  0  0  0  0
 25 39  1  0  0  0  0
 26 27  2  0  0  0  0
 26 28  1  0  0  0  0
 27 65  1  0  0  0  0
 28 29  3  0  0  0  0
 29 30  1  0  0  0  0
 30 31  2  0  0  0  0
 30 35  1  0  0  0  0
 31 32  1  0  0  0  0
 31 66  1  0  0  0  0
 32 33  2  0  0  0  0
 32 67  1  0  0  0  0
 33 34  1  0  0  0  0
 33 38  1  0  0  0  0
 34 35  2  0  0  0  0
 34 36  1  0  0  0  0
 35 68  1  0  0  0  0
 36 37  1  0  0  0  0
 36 69  1  0  0  0  0
 36 70  1  0  0  0  0
 37 38  1  0  0  0  0
 37 71  1  0  0  0  0
 37 72  1  0  0  0  0
 38 73  1  0  0  0  0
 38 74  1  0  0  0  0
 40 75  1  0  0  0  0
 40 76  1  0  0  0  0
M  CHG  2  16   1  37   1
M  END
