CatS_429:1_D
 OpenBabel12041818463D

 92 97  0  0  1  0  0  0  0  0999 V2000
   39.8071  -14.1364   46.2322 C   0  0  0  0  0  0  0  0  0  0  0  0
   40.3680  -13.3125   45.0537 C   0  0  1  0  0  0  0  0  0  0  0  0
   39.9240  -13.9655   43.7292 C   0  0  0  0  0  0  0  0  0  0  0  0
   38.5087  -13.7919   43.5237 O   0  0  0  0  0  0  0  0  0  0  0  0
   38.1351  -12.4048   43.4224 C   0  0  0  0  0  0  0  0  0  0  0  0
   38.4926  -11.6406   44.7126 C   0  0  0  0  0  0  0  0  0  0  0  0
   39.9470  -11.8553   45.0639 N   0  3  1  0  0  0  0  0  0  0  0  0
   40.3710  -11.1241   46.3152 C   0  0  0  0  0  0  0  0  0  0  0  0
   40.1347   -9.6002   46.2702 C   0  0  0  0  0  0  0  0  0  0  0  0
   41.4458   -8.9211   45.8396 C   0  0  0  0  0  0  0  0  0  0  0  0
   41.3001   -7.6472   45.1234 N   0  0  0  0  0  0  0  0  0  0  0  0
   40.4275   -7.2929   44.1488 C   0  0  0  0  0  0  0  0  0  0  0  0
   40.6632   -6.0712   43.6635 C   0  0  0  0  0  0  0  0  0  0  0  0
   41.7753   -5.6249   44.4175 C   0  0  0  0  0  0  0  0  0  0  0  0
   42.1171   -6.5795   45.2575 N   0  0  0  0  0  0  0  0  0  0  0  0
   42.4800   -4.3548   44.3486 C   0  0  0  0  0  0  0  0  0  0  0  0
   43.3241   -4.1065   43.2756 C   0  0  0  0  0  0  0  0  0  0  0  0
   44.0065   -2.9149   43.1717 C   0  0  0  0  0  0  0  0  0  0  0  0
   43.8574   -1.9460   44.1338 C   0  0  0  0  0  0  0  0  0  0  0  0
   43.0124   -2.1741   45.2160 C   0  0  0  0  0  0  0  0  0  0  0  0
   42.3313   -3.3814   45.3169 C   0  0  0  0  0  0  0  0  0  0  0  0
   42.8427   -1.1602   46.2246 C   0  0  0  0  0  0  0  0  0  0  0  0
   42.7072   -0.3034   47.0826 C   0  0  0  0  0  0  0  0  0  0  0  0
   42.5603    0.6986   48.1060 C   0  0  0  0  0  0  0  0  0  0  0  0
   42.4312    2.0448   47.7798 C   0  0  0  0  0  0  0  0  0  0  0  0
   42.2931    2.9729   48.7792 C   0  0  0  0  0  0  0  0  0  0  0  0
   42.2794    2.5822   50.1023 C   0  0  0  0  0  0  0  0  0  0  0  0
   42.4066    1.2390   50.4527 C   0  0  0  0  0  0  0  0  0  0  0  0
   42.5475    0.3103   49.4369 C   0  0  0  0  0  0  0  0  0  0  0  0
   42.3839    0.7833   51.8680 C   0  0  0  0  0  0  0  0  0  0  0  0
   41.7530    1.4625   52.6753 O   0  0  0  0  0  0  0  0  0  0  0  0
   43.0334   -0.3526   52.2025 N   0  0  0  0  0  0  0  0  0  0  0  0
   42.9031   -0.9156   53.5545 C   0  0  0  0  0  0  0  0  0  0  0  0
   42.2432   -2.3082   53.5282 C   0  0  2  0  0  0  0  0  0  0  0  0
   42.0359   -2.8434   52.0953 C   0  0  0  0  0  0  0  0  0  0  0  0
   40.5773   -2.5150   51.7141 C   0  0  0  0  0  0  0  0  0  0  0  0
   40.0141   -1.8796   52.9534 N   0  3  0  0  0  0  0  0  0  0  0  0
   40.8362   -2.2798   54.1412 C   0  0  0  0  0  0  0  0  0  0  0  0
   42.1071    3.8051   51.3284 Cl  0  0  0  0  0  0  0  0  0  0  0  0
   44.7178   -0.4401   44.0007 Cl  0  0  0  0  0  0  0  0  0  0  0  0
   39.8456   -5.4356   42.5459 C   0  0  0  0  0  0  0  0  0  0  0  0
   38.8480   -6.3452   41.9361 N   0  0  0  0  0  0  0  0  0  0  0  0
   38.8943   -7.7986   42.2054 C   0  0  0  0  0  0  0  0  0  0  0  0
   39.2954   -8.1694   43.6479 C   0  0  0  0  0  0  0  0  0  0  0  0
   37.9249   -5.8775   41.0717 C   0  0  0  0  0  0  0  0  0  0  0  0
   37.0523   -6.5671   40.5611 O   0  0  0  0  0  0  0  0  0  0  0  0
   37.8851   -4.4579   40.6291 C   0  0  0  0  0  0  0  0  0  0  0  0
   38.7300   -3.6354   40.9520 O   0  0  0  0  0  0  0  0  0  0  0  0
   36.8458   -4.1720   39.8328 N   0  0  0  0  0  0  0  0  0  0  0  0
   41.3634  -13.3161   45.1487 H   0  0  0  0  0  0  0  0  0  0  0  0
   42.8719   -2.8892   54.0451 H   0  0  0  0  0  0  0  0  0  0  0  0
   38.8386  -14.3228   46.0674 H   0  0  0  0  0  0  0  0  0  0  0  0
   40.3075  -14.9987   46.3100 H   0  0  0  0  0  0  0  0  0  0  0  0
   39.9119  -13.6215   47.0830 H   0  0  0  0  0  0  0  0  0  0  0  0
   40.1367  -14.9423   43.7559 H   0  0  0  0  0  0  0  0  0  0  0  0
   40.4128  -13.5265   42.9754 H   0  0  0  0  0  0  0  0  0  0  0  0
   37.1499  -12.3406   43.2637 H   0  0  0  0  0  0  0  0  0  0  0  0
   38.6373  -11.9944   42.6612 H   0  0  0  0  0  0  0  0  0  0  0  0
   37.9177  -11.9689   45.4621 H   0  0  0  0  0  0  0  0  0  0  0  0
   38.3355  -10.6640   44.5661 H   0  0  0  0  0  0  0  0  0  0  0  0
   40.4222  -11.4715   44.3867 H   0  0  0  0  0  0  0  0  0  0  0  0
   41.3467  -11.2881   46.4601 H   0  0  0  0  0  0  0  0  0  0  0  0
   39.8050  -11.4785   47.0596 H   0  0  0  0  0  0  0  0  0  0  0  0
   39.8619   -9.2719   47.1745 H   0  0  0  0  0  0  0  0  0  0  0  0
   39.4061   -9.3835   45.6205 H   0  0  0  0  0  0  0  0  0  0  0  0
   41.9406   -9.5552   45.2454 H   0  0  0  0  0  0  0  0  0  0  0  0
   41.9286   -8.7009   46.6872 H   0  0  0  0  0  0  0  0  0  0  0  0
   43.4385   -4.8032   42.5674 H   0  0  0  0  0  0  0  0  0  0  0  0
   44.6129   -2.7544   42.3929 H   0  0  0  0  0  0  0  0  0  0  0  0
   41.7284   -3.5466   46.0974 H   0  0  0  0  0  0  0  0  0  0  0  0
   42.4390    2.3335   46.8224 H   0  0  0  0  0  0  0  0  0  0  0  0
   42.2017    3.9413   48.5472 H   0  0  0  0  0  0  0  0  0  0  0  0
   42.6417   -0.6584   49.6668 H   0  0  0  0  0  0  0  0  0  0  0  0
   43.5341   -0.7685   51.6102 H   0  0  0  0  0  0  0  0  0  0  0  0
   42.3457   -0.3000   54.1117 H   0  0  0  0  0  0  0  0  0  0  0  0
   43.8197   -1.0125   53.9424 H   0  0  0  0  0  0  0  0  0  0  0  0
   42.1893   -3.8312   52.0678 H   0  0  0  0  0  0  0  0  0  0  0  0
   42.6797   -2.4241   51.4552 H   0  0  0  0  0  0  0  0  0  0  0  0
   40.0741   -3.3460   51.4770 H   0  0  0  0  0  0  0  0  0  0  0  0
   40.5128   -1.9195   50.9133 H   0  0  0  0  0  0  0  0  0  0  0  0
   39.9426   -0.9748   52.8748 H   0  0  0  0  0  0  0  0  0  0  0  0
   39.1580   -2.1669   53.0756 H   0  0  0  0  0  0  0  0  0  0  0  0
   40.7692   -1.6094   54.8802 H   0  0  0  0  0  0  0  0  0  0  0  0
   40.5540   -3.1403   54.5653 H   0  0  0  0  0  0  0  0  0  0  0  0
   40.4735   -5.1288   41.8306 H   0  0  0  0  0  0  0  0  0  0  0  0
   39.3339   -4.6807   42.9559 H   0  0  0  0  0  0  0  0  0  0  0  0
   39.5543   -8.2128   41.5787 H   0  0  0  0  0  0  0  0  0  0  0  0
   37.9644   -8.1418   42.0730 H   0  0  0  0  0  0  0  0  0  0  0  0
   38.5037   -8.0559   44.2481 H   0  0  0  0  0  0  0  0  0  0  0  0
   39.6068   -9.1197   43.6527 H   0  0  0  0  0  0  0  0  0  0  0  0
   36.2570   -4.7911   39.6260 H   0  0  0  0  0  0  0  0  0  0  0  0
   36.7523   -3.3571   39.5136 H   0  0  0  0  0  0  0  0  0  0  0  0
  1  2  1  0  0  0  0
  1 52  1  0  0  0  0
  1 53  1  0  0  0  0
  1 54  1  0  0  0  0
  2  3  1  0  0  0  0
  2  7  1  0  0  0  0
  2 50  1  1  0  0  0
  3  4  1  0  0  0  0
  3 55  1  0  0  0  0
  3 56  1  0  0  0  0
  4  5  1  0  0  0  0
  5  6  1  0  0  0  0
  5 57  1  0  0  0  0
  5 58  1  0  0  0  0
  6  7  1  0  0  0  0
  6 59  1  0  0  0  0
  6 60  1  0  0  0  0
  7  8  1  0  0  0  0
  7 61  1  6  0  0  0
  8  9  1  0  0  0  0
  8 62  1  0  0  0  0
  8 63  1  0  0  0  0
  9 10  1  0  0  0  0
  9 64  1  0  0  0  0
  9 65  1  0  0  0  0
 10 11  1  0  0  0  0
 10 66  1  0  0  0  0
 10 67  1  0  0  0  0
 11 12  1  0  0  0  0
 11 15  1  0  0  0  0
 12 13  2  0  0  0  0
 12 44  1  0  0  0  0
 13 14  1  0  0  0  0
 13 41  1  0  0  0  0
 14 15  2  0  0  0  0
 14 16  1  0  0  0  0
 16 17  2  0  0  0  0
 16 21  1  0  0  0  0
 17 18  1  0  0  0  0
 17 68  1  0  0  0  0
 18 19  2  0  0  0  0
 18 69  1  0  0  0  0
 19 20  1  0  0  0  0
 19 40  1  0  0  0  0
 20 21  2  0  0  0  0
 20 22  1  0  0  0  0
 21 70  1  0  0  0  0
 22 23  3  0  0  0  0
 23 24  1  0  0  0  0
 24 25  2  0  0  0  0
 24 29  1  0  0  0  0
 25 26  1  0  0  0  0
 25 71  1  0  0  0  0
 26 27  2  0  0  0  0
 26 72  1  0  0  0  0
 27 28  1  0  0  0  0
 27 39  1  0  0  0  0
 28 29  2  0  0  0  0
 28 30  1  0  0  0  0
 29 73  1  0  0  0  0
 30 31  2  0  0  0  0
 30 32  1  0  0  0  0
 32 33  1  0  0  0  0
 32 74  1  0  0  0  0
 33 34  1  0  0  0  0
 33 75  1  0  0  0  0
 33 76  1  0  0  0  0
 34 35  1  0  0  0  0
 34 38  1  0  0  0  0
 34 51  1  1  0  0  0
 35 36  1  0  0  0  0
 35 77  1  0  0  0  0
 35 78  1  0  0  0  0
 36 37  1  0  0  0  0
 36 79  1  0  0  0  0
 36 80  1  0  0  0  0
 37 38  1  0  0  0  0
 37 81  1  0  0  0  0
 37 82  1  0  0  0  0
 38 83  1  0  0  0  0
 38 84  1  0  0  0  0
 41 42  1  0  0  0  0
 41 85  1  0  0  0  0
 41 86  1  0  0  0  0
 42 43  1  0  0  0  0
 42 45  1  0  0  0  0
 43 44  1  0  0  0  0
 43 87  1  0  0  0  0
 43 88  1  0  0  0  0
 44 89  1  0  0  0  0
 44 90  1  0  0  0  0
 45 46  2  0  0  0  0
 45 47  1  0  0  0  0
 47 48  2  0  0  0  0
 47 49  1  0  0  0  0
 49 91  1  0  0  0  0
 49 92  1  0  0  0  0
M  CHG  2   7   1  37   1
M  END
