CatS_355:1_D
 OpenBabel12041818463D

 87 92  0  0  0  0  0  0  0  0999 V2000
   46.7121   -2.9237   40.4473 C   0  0  0  0  0  0  0  0  0  0  0  0
   45.6311   -1.5056   40.7803 S   0  0  0  0  0  0  0  0  0  0  0  0
   44.3113   -1.8342   40.3461 O   0  0  0  0  0  0  0  0  0  0  0  0
   46.2460   -0.3459   40.2197 O   0  0  0  0  0  0  0  0  0  0  0  0
   45.5702   -1.2516   42.3872 N   0  0  0  0  0  0  0  0  0  0  0  0
   46.8224   -0.8975   43.0969 C   0  0  0  0  0  0  0  0  0  0  0  0
   46.5594   -0.3669   44.5273 C   0  0  0  0  0  0  0  0  0  0  0  0
   45.6396   -1.3104   45.2766 C   0  0  0  0  0  0  0  0  0  0  0  0
   44.8819   -2.1991   44.6325 C   0  0  0  0  0  0  0  0  0  0  0  0
   44.2399   -2.9032   45.6745 C   0  0  0  0  0  0  0  0  0  0  0  0
   44.6346   -2.3976   46.8235 N   0  0  0  0  0  0  0  0  0  0  0  0
   45.5020   -1.3788   46.6246 N   0  0  0  0  0  0  0  0  0  0  0  0
   46.1741   -0.6222   47.6918 C   0  0  0  0  0  0  0  0  0  0  0  0
   45.3897    0.5792   48.2524 C   0  0  0  0  0  0  0  0  0  0  0  0
   43.9120    0.2021   48.4856 C   0  0  0  0  0  0  0  0  0  0  0  0
   43.0668    0.3477   47.2452 N   0  3  0  0  0  0  0  0  0  0  0  0
   41.7264   -0.3285   47.3896 C   0  0  0  0  0  0  0  0  0  0  0  0
   40.8031    0.5243   48.2807 C   0  0  0  0  0  0  0  0  0  0  0  0
   40.6857    1.8579   47.7500 O   0  0  0  0  0  0  0  0  0  0  0  0
   41.9533    2.5395   47.6968 C   0  0  0  0  0  0  0  0  0  0  0  0
   42.9401    1.7803   46.7881 C   0  0  0  0  0  0  0  0  0  0  0  0
   43.3219   -4.0215   45.5833 C   0  0  0  0  0  0  0  0  0  0  0  0
   43.5222   -5.1123   46.4169 C   0  0  0  0  0  0  0  0  0  0  0  0
   42.6752   -6.1962   46.3626 C   0  0  0  0  0  0  0  0  0  0  0  0
   41.6105   -6.1960   45.4956 C   0  0  0  0  0  0  0  0  0  0  0  0
   41.3965   -5.1027   44.6571 C   0  0  0  0  0  0  0  0  0  0  0  0
   42.2667   -4.0195   44.6919 C   0  0  0  0  0  0  0  0  0  0  0  0
   40.2471   -5.1729   43.7931 C   0  0  0  0  0  0  0  0  0  0  0  0
   39.3764   -5.2246   42.9414 C   0  0  0  0  0  0  0  0  0  0  0  0
   38.5027   -5.2718   41.7993 C   0  0  0  0  0  0  0  0  0  0  0  0
   37.5905   -4.2942   41.4209 C   0  0  0  0  0  0  0  0  0  0  0  0
   36.8975   -4.4548   40.2451 C   0  0  0  0  0  0  0  0  0  0  0  0
   37.1062   -5.5641   39.4454 C   0  0  0  0  0  0  0  0  0  0  0  0
   38.0022   -6.5470   39.8205 C   0  0  0  0  0  0  0  0  0  0  0  0
   38.6678   -6.3963   41.0068 C   0  0  0  0  0  0  0  0  0  0  0  0
   38.2607   -7.7939   38.9764 C   0  0  0  0  0  0  0  0  0  0  0  0
   39.4070   -7.7141   37.9870 N   0  3  0  0  0  0  0  0  0  0  0  0
   40.6774   -8.4365   38.3751 C   0  0  0  0  0  0  0  0  0  0  0  0
   41.8386   -8.4501   37.3906 C   0  0  0  0  0  0  0  0  0  0  0  0
   42.1644   -9.6705   36.8572 C   0  0  0  0  0  0  0  0  0  0  0  0
   43.1907   -9.7577   35.9568 C   0  0  0  0  0  0  0  0  0  0  0  0
   43.8670   -8.6153   35.6096 C   0  0  0  0  0  0  0  0  0  0  0  0
   43.5800   -7.3968   36.1075 N   0  0  0  0  0  0  0  0  0  0  0  0
   42.5635   -7.3504   36.9924 C   0  0  0  0  0  0  0  0  0  0  0  0
   40.5238   -7.5630   45.4354 Cl  0  0  0  0  0  0  0  0  0  0  0  0
   44.8811   -2.3440   43.1179 C   0  0  0  0  0  0  0  0  0  0  0  0
   47.0626   -3.2768   41.3148 H   0  0  0  0  0  0  0  0  0  0  0  0
   46.1956   -3.6392   39.9767 H   0  0  0  0  0  0  0  0  0  0  0  0
   47.4742   -2.6373   39.8667 H   0  0  0  0  0  0  0  0  0  0  0  0
   47.3019   -0.1931   42.5734 H   0  0  0  0  0  0  0  0  0  0  0  0
   47.3729   -1.7285   43.1774 H   0  0  0  0  0  0  0  0  0  0  0  0
   46.1357    0.5372   44.4728 H   0  0  0  0  0  0  0  0  0  0  0  0
   47.4293   -0.3053   45.0166 H   0  0  0  0  0  0  0  0  0  0  0  0
   47.0430   -0.2838   47.3304 H   0  0  0  0  0  0  0  0  0  0  0  0
   46.2770   -1.2599   48.4553 H   0  0  0  0  0  0  0  0  0  0  0  0
   45.4393    1.3379   47.6027 H   0  0  0  0  0  0  0  0  0  0  0  0
   45.7941    0.8485   49.1264 H   0  0  0  0  0  0  0  0  0  0  0  0
   43.5391    0.7940   49.2001 H   0  0  0  0  0  0  0  0  0  0  0  0
   43.8868   -0.7611   48.7531 H   0  0  0  0  0  0  0  0  0  0  0  0
   43.5006   -0.1025   46.5812 H   0  0  0  0  0  0  0  0  0  0  0  0
   41.8510   -1.2302   47.8037 H   0  0  0  0  0  0  0  0  0  0  0  0
   41.3094   -0.4294   46.4863 H   0  0  0  0  0  0  0  0  0  0  0  0
   41.1820    0.5669   49.2051 H   0  0  0  0  0  0  0  0  0  0  0  0
   39.8958    0.1043   48.3034 H   0  0  0  0  0  0  0  0  0  0  0  0
   42.3338    2.6016   48.6195 H   0  0  0  0  0  0  0  0  0  0  0  0
   41.8112    3.4554   47.3215 H   0  0  0  0  0  0  0  0  0  0  0  0
   42.6080    1.8003   45.8451 H   0  0  0  0  0  0  0  0  0  0  0  0
   43.8363    2.2210   46.8392 H   0  0  0  0  0  0  0  0  0  0  0  0
   44.2869   -5.1112   47.0613 H   0  0  0  0  0  0  0  0  0  0  0  0
   42.8356   -6.9851   46.9558 H   0  0  0  0  0  0  0  0  0  0  0  0
   42.1298   -3.2438   44.0757 H   0  0  0  0  0  0  0  0  0  0  0  0
   37.4409   -3.4884   41.9937 H   0  0  0  0  0  0  0  0  0  0  0  0
   36.2342   -3.7612   39.9642 H   0  0  0  0  0  0  0  0  0  0  0  0
   36.6029   -5.6559   38.5861 H   0  0  0  0  0  0  0  0  0  0  0  0
   39.2904   -7.1178   41.3100 H   0  0  0  0  0  0  0  0  0  0  0  0
   37.4261   -7.9934   38.4629 H   0  0  0  0  0  0  0  0  0  0  0  0
   38.5242   -8.5051   39.6282 H   0  0  0  0  0  0  0  0  0  0  0  0
   39.1099   -8.0582   37.1984 H   0  0  0  0  0  0  0  0  0  0  0  0
   39.5886   -6.8431   37.7921 H   0  0  0  0  0  0  0  0  0  0  0  0
   40.4323   -9.3885   38.5584 H   0  0  0  0  0  0  0  0  0  0  0  0
   41.0261   -7.9142   39.1534 H   0  0  0  0  0  0  0  0  0  0  0  0
   41.6563  -10.4895   37.1240 H   0  0  0  0  0  0  0  0  0  0  0  0
   43.4439  -10.6392   35.5583 H   0  0  0  0  0  0  0  0  0  0  0  0
   44.6149   -8.6916   34.9502 H   0  0  0  0  0  0  0  0  0  0  0  0
   42.3218   -6.4622   37.3833 H   0  0  0  0  0  0  0  0  0  0  0  0
   45.3299   -3.2069   42.8854 H   0  0  0  0  0  0  0  0  0  0  0  0
   43.9227   -2.3111   42.8341 H   0  0  0  0  0  0  0  0  0  0  0  0
  1  2  1  0  0  0  0
  1 47  1  0  0  0  0
  1 48  1  0  0  0  0
  1 49  1  0  0  0  0
  2  3  2  0  0  0  0
  2  4  2  0  0  0  0
  2  5  1  0  0  0  0
  5  6  1  0  0  0  0
  5 46  1  0  0  0  0
  6  7  1  0  0  0  0
  6 50  1  0  0  0  0
  6 51  1  0  0  0  0
  7  8  1  0  0  0  0
  7 52  1  0  0  0  0
  7 53  1  0  0  0  0
  8  9  2  0  0  0  0
  8 12  1  0  0  0  0
  9 10  1  0  0  0  0
  9 46  1  0  0  0  0
 10 11  2  0  0  0  0
 10 22  1  0  0  0  0
 11 12  1  0  0  0  0
 12 13  1  0  0  0  0
 13 14  1  0  0  0  0
 13 54  1  0  0  0  0
 13 55  1  0  0  0  0
 14 15  1  0  0  0  0
 14 56  1  0  0  0  0
 14 57  1  0  0  0  0
 15 16  1  0  0  0  0
 15 58  1  0  0  0  0
 15 59  1  0  0  0  0
 16 17  1  0  0  0  0
 16 21  1  0  0  0  0
 16 60  1  0  0  0  0
 17 18  1  0  0  0  0
 17 61  1  0  0  0  0
 17 62  1  0  0  0  0
 18 19  1  0  0  0  0
 18 63  1  0  0  0  0
 18 64  1  0  0  0  0
 19 20  1  0  0  0  0
 20 21  1  0  0  0  0
 20 65  1  0  0  0  0
 20 66  1  0  0  0  0
 21 67  1  0  0  0  0
 21 68  1  0  0  0  0
 22 23  2  0  0  0  0
 22 27  1  0  0  0  0
 23 24  1  0  0  0  0
 23 69  1  0  0  0  0
 24 25  2  0  0  0  0
 24 70  1  0  0  0  0
 25 26  1  0  0  0  0
 25 45  1  0  0  0  0
 26 27  2  0  0  0  0
 26 28  1  0  0  0  0
 27 71  1  0  0  0  0
 28 29  3  0  0  0  0
 29 30  1  0  0  0  0
 30 31  2  0  0  0  0
 30 35  1  0  0  0  0
 31 32  1  0  0  0  0
 31 72  1  0  0  0  0
 32 33  2  0  0  0  0
 32 73  1  0  0  0  0
 33 34  1  0  0  0  0
 33 74  1  0  0  0  0
 34 35  2  0  0  0  0
 34 36  1  0  0  0  0
 35 75  1  0  0  0  0
 36 37  1  0  0  0  0
 36 76  1  0  0  0  0
 36 77  1  0  0  0  0
 37 38  1  0  0  0  0
 37 78  1  0  0  0  0
 37 79  1  0  0  0  0
 38 39  1  0  0  0  0
 38 80  1  0  0  0  0
 38 81  1  0  0  0  0
 39 40  2  0  0  0  0
 39 44  1  0  0  0  0
 40 41  1  0  0  0  0
 40 82  1  0  0  0  0
 41 42  2  0  0  0  0
 41 83  1  0  0  0  0
 42 43  1  0  0  0  0
 42 84  1  0  0  0  0
 43 44  2  0  0  0  0
 44 85  1  0  0  0  0
 46 86  1  0  0  0  0
 46 87  1  0  0  0  0
M  CHG  2  16   1  37   1
M  END
