CatS_132:1_D
 OpenBabel12041818463D

 91 95  0  0  1  0  0  0  0  0999 V2000
   43.8361  -10.9104   47.5629 C   0  0  0  0  0  0  0  0  0  0  0  0
   44.4776   -9.5944   47.4308 N   0  0  0  0  0  0  0  0  0  0  0  0
   44.6828   -9.0525   48.7812 C   0  0  0  0  0  0  0  0  0  0  0  0
   43.9003   -8.5836   46.2876 S   0  0  0  0  0  0  0  0  0  0  0  0
   44.8610   -7.5312   46.2030 O   0  0  0  0  0  0  0  0  0  0  0  0
   43.6491   -9.3566   45.1148 O   0  0  0  0  0  0  0  0  0  0  0  0
   42.5020   -7.8773   46.7435 N   0  0  0  0  0  0  0  0  0  0  0  0
   41.1651   -8.4444   46.4456 C   0  0  0  0  0  0  0  0  0  0  0  0
   40.5726   -7.9791   45.0901 C   0  0  0  0  0  0  0  0  0  0  0  0
   40.9522   -6.5475   44.7459 C   0  0  0  0  0  0  0  0  0  0  0  0
   41.8237   -5.8546   45.4845 C   0  0  0  0  0  0  0  0  0  0  0  0
   41.9498   -4.6315   44.7892 C   0  0  0  0  0  0  0  0  0  0  0  0
   41.1411   -4.6639   43.7544 N   0  0  0  0  0  0  0  0  0  0  0  0
   40.4897   -5.8403   43.6814 N   0  0  0  0  0  0  0  0  0  0  0  0
   39.5309   -6.1820   42.6193 C   0  0  0  0  0  0  0  0  0  0  0  0
   38.4103   -5.1392   42.3992 C   0  0  2  0  0  0  0  0  0  0  0  0
   38.3212   -4.7082   40.9174 C   0  0  0  0  0  0  0  0  0  0  0  0
   37.2191   -5.3437   40.1114 N   0  3  0  0  0  0  0  0  0  0  0  0
   37.1956   -4.9216   38.6625 C   0  0  0  0  0  0  0  0  0  0  0  0
   36.0040   -5.5660   37.9251 C   0  0  0  0  0  0  0  0  0  0  0  0
   36.0903   -7.0995   38.0395 C   0  0  0  0  0  0  0  0  0  0  0  0
   36.0783   -7.5144   39.5230 C   0  0  0  0  0  0  0  0  0  0  0  0
   37.2496   -6.8439   40.2689 C   0  0  0  0  0  0  0  0  0  0  0  0
   38.6454   -3.9953   43.2338 O   0  0  0  0  0  0  0  0  0  0  0  0
   42.7987   -3.4814   45.0344 C   0  0  0  0  0  0  0  0  0  0  0  0
   42.3296   -2.2300   44.6830 C   0  0  0  0  0  0  0  0  0  0  0  0
   43.1136   -1.1162   44.8559 C   0  0  0  0  0  0  0  0  0  0  0  0
   44.3924   -1.2103   45.3652 C   0  0  0  0  0  0  0  0  0  0  0  0
   44.8615   -2.4697   45.7143 C   0  0  0  0  0  0  0  0  0  0  0  0
   44.0740   -3.5873   45.5584 C   0  0  0  0  0  0  0  0  0  0  0  0
   46.5195   -2.7239   46.3614 S   0  0  0  0  0  0  0  0  0  0  0  0
   47.5660   -3.1618   44.9489 C   0  0  0  0  0  0  0  0  0  0  0  0
   47.5938   -2.0604   43.8662 C   0  0  0  0  0  0  0  0  0  0  0  0
   47.1086   -2.4487   42.4902 N   0  3  1  0  0  0  0  0  0  0  0  0
   46.0046   -1.5240   42.0368 C   0  0  0  0  0  0  0  0  0  0  0  0
   45.4723   -1.8985   40.6394 C   0  0  0  0  0  0  0  0  0  0  0  0
   46.6370   -1.9018   39.6339 C   0  0  1  0  0  0  0  0  0  0  0  0
   47.6754   -2.9465   40.0779 C   0  0  0  0  0  0  0  0  0  0  0  0
   48.2194   -2.5789   41.4729 C   0  0  0  0  0  0  0  0  0  0  0  0
   46.1597   -2.2284   38.3699 F   0  0  0  0  0  0  0  0  0  0  0  0
   45.1654    0.1015   45.4929 C   0  0  0  0  0  0  0  0  0  0  0  0
   45.8268    0.3941   44.3065 F   0  0  0  0  0  0  0  0  0  0  0  0
   46.1286    0.0735   46.4976 F   0  0  0  0  0  0  0  0  0  0  0  0
   44.3311    1.1750   45.7826 F   0  0  0  0  0  0  0  0  0  0  0  0
   42.4100   -6.4031   46.7758 C   0  0  0  0  0  0  0  0  0  0  0  0
   37.5377   -5.5609   42.6459 H   0  0  0  0  0  0  0  0  0  0  0  0
   43.1008  -10.9832   46.8891 H   0  0  0  0  0  0  0  0  0  0  0  0
   44.5101  -11.6321   47.4054 H   0  0  0  0  0  0  0  0  0  0  0  0
   43.4609  -11.0111   48.4844 H   0  0  0  0  0  0  0  0  0  0  0  0
   44.4198   -8.0878   48.7883 H   0  0  0  0  0  0  0  0  0  0  0  0
   44.1232   -9.5591   49.4371 H   0  0  0  0  0  0  0  0  0  0  0  0
   45.6454   -9.1420   49.0372 H   0  0  0  0  0  0  0  0  0  0  0  0
   40.5373   -8.1744   47.1756 H   0  0  0  0  0  0  0  0  0  0  0  0
   41.2776   -9.4363   46.3863 H   0  0  0  0  0  0  0  0  0  0  0  0
   39.5759   -8.0469   45.1346 H   0  0  0  0  0  0  0  0  0  0  0  0
   40.9489   -8.5704   44.3768 H   0  0  0  0  0  0  0  0  0  0  0  0
   39.1048   -7.0562   42.8521 H   0  0  0  0  0  0  0  0  0  0  0  0
   40.0540   -6.2158   41.7677 H   0  0  0  0  0  0  0  0  0  0  0  0
   39.1920   -4.9314   40.4793 H   0  0  0  0  0  0  0  0  0  0  0  0
   38.1131   -3.7302   40.9329 H   0  0  0  0  0  0  0  0  0  0  0  0
   36.4332   -5.0585   40.4754 H   0  0  0  0  0  0  0  0  0  0  0  0
   38.0483   -5.2041   38.2231 H   0  0  0  0  0  0  0  0  0  0  0  0
   37.0984   -3.9272   38.6194 H   0  0  0  0  0  0  0  0  0  0  0  0
   36.0249   -5.3004   36.9612 H   0  0  0  0  0  0  0  0  0  0  0  0
   35.1498   -5.2519   38.3390 H   0  0  0  0  0  0  0  0  0  0  0  0
   36.9348   -7.4189   37.6097 H   0  0  0  0  0  0  0  0  0  0  0  0
   35.3039   -7.5093   37.5772 H   0  0  0  0  0  0  0  0  0  0  0  0
   36.1649   -8.5083   39.5909 H   0  0  0  0  0  0  0  0  0  0  0  0
   35.2167   -7.2220   39.9380 H   0  0  0  0  0  0  0  0  0  0  0  0
   37.1918   -7.0713   41.2410 H   0  0  0  0  0  0  0  0  0  0  0  0
   38.1048   -7.1829   39.8768 H   0  0  0  0  0  0  0  0  0  0  0  0
   39.0716   -3.2455   42.7156 H   0  0  0  0  0  0  0  0  0  0  0  0
   41.4111   -2.1348   44.2994 H   0  0  0  0  0  0  0  0  0  0  0  0
   42.7502   -0.2183   44.6075 H   0  0  0  0  0  0  0  0  0  0  0  0
   44.4270   -4.4837   45.8264 H   0  0  0  0  0  0  0  0  0  0  0  0
   47.2192   -4.0065   44.5411 H   0  0  0  0  0  0  0  0  0  0  0  0
   48.5001   -3.2753   45.2878 H   0  0  0  0  0  0  0  0  0  0  0  0
   48.5384   -1.7437   43.7788 H   0  0  0  0  0  0  0  0  0  0  0  0
   46.9496   -1.3645   44.1835 H   0  0  0  0  0  0  0  0  0  0  0  0
   46.7315   -3.2747   42.5683 H   0  0  0  0  0  0  0  0  0  0  0  0
   46.3561   -0.5882   42.0107 H   0  0  0  0  0  0  0  0  0  0  0  0
   45.2481   -1.6066   42.6856 H   0  0  0  0  0  0  0  0  0  0  0  0
   44.7831   -1.2327   40.3536 H   0  0  0  0  0  0  0  0  0  0  0  0
   45.0580   -2.8081   40.6722 H   0  0  0  0  0  0  0  0  0  0  0  0
   47.0596   -0.9960   39.6014 H   0  0  0  0  0  0  0  0  0  0  0  0
   48.4283   -2.9694   39.4202 H   0  0  0  0  0  0  0  0  0  0  0  0
   47.2419   -3.8467   40.1197 H   0  0  0  0  0  0  0  0  0  0  0  0
   48.8544   -3.2905   41.7737 H   0  0  0  0  0  0  0  0  0  0  0  0
   48.6824   -1.6954   41.4024 H   0  0  0  0  0  0  0  0  0  0  0  0
   43.3248   -6.0215   46.9085 H   0  0  0  0  0  0  0  0  0  0  0  0
   41.8065   -6.1423   47.5293 H   0  0  0  0  0  0  0  0  0  0  0  0
  1  2  1  0  0  0  0
  1 47  1  0  0  0  0
  1 48  1  0  0  0  0
  1 49  1  0  0  0  0
  2  3  1  0  0  0  0
  2  4  1  0  0  0  0
  3 50  1  0  0  0  0
  3 51  1  0  0  0  0
  3 52  1  0  0  0  0
  4  5  2  0  0  0  0
  4  6  2  0  0  0  0
  4  7  1  0  0  0  0
  7  8  1  0  0  0  0
  7 45  1  0  0  0  0
  8  9  1  0  0  0  0
  8 53  1  0  0  0  0
  8 54  1  0  0  0  0
  9 10  1  0  0  0  0
  9 55  1  0  0  0  0
  9 56  1  0  0  0  0
 10 11  2  0  0  0  0
 10 14  1  0  0  0  0
 11 12  1  0  0  0  0
 11 45  1  0  0  0  0
 12 13  2  0  0  0  0
 12 25  1  0  0  0  0
 13 14  1  0  0  0  0
 14 15  1  0  0  0  0
 15 16  1  0  0  0  0
 15 57  1  0  0  0  0
 15 58  1  0  0  0  0
 16 17  1  0  0  0  0
 16 24  1  0  0  0  0
 16 46  1  1  0  0  0
 17 18  1  0  0  0  0
 17 59  1  0  0  0  0
 17 60  1  0  0  0  0
 18 19  1  0  0  0  0
 18 23  1  0  0  0  0
 18 61  1  0  0  0  0
 19 20  1  0  0  0  0
 19 62  1  0  0  0  0
 19 63  1  0  0  0  0
 20 21  1  0  0  0  0
 20 64  1  0  0  0  0
 20 65  1  0  0  0  0
 21 22  1  0  0  0  0
 21 66  1  0  0  0  0
 21 67  1  0  0  0  0
 22 23  1  0  0  0  0
 22 68  1  0  0  0  0
 22 69  1  0  0  0  0
 23 70  1  0  0  0  0
 23 71  1  0  0  0  0
 24 72  1  0  0  0  0
 25 26  2  0  0  0  0
 25 30  1  0  0  0  0
 26 27  1  0  0  0  0
 26 73  1  0  0  0  0
 27 28  2  0  0  0  0
 27 74  1  0  0  0  0
 28 29  1  0  0  0  0
 28 41  1  0  0  0  0
 29 30  2  0  0  0  0
 29 31  1  0  0  0  0
 30 75  1  0  0  0  0
 31 32  1  0  0  0  0
 32 33  1  0  0  0  0
 32 76  1  0  0  0  0
 32 77  1  0  0  0  0
 33 34  1  0  0  0  0
 33 78  1  0  0  0  0
 33 79  1  0  0  0  0
 34 35  1  0  0  0  0
 34 39  1  0  0  0  0
 34 80  1  1  0  0  0
 35 36  1  0  0  0  0
 35 81  1  0  0  0  0
 35 82  1  0  0  0  0
 36 37  1  0  0  0  0
 36 83  1  0  0  0  0
 36 84  1  0  0  0  0
 37 38  1  0  0  0  0
 37 40  1  0  0  0  0
 37 85  1  6  0  0  0
 38 39  1  0  0  0  0
 38 86  1  0  0  0  0
 38 87  1  0  0  0  0
 39 88  1  0  0  0  0
 39 89  1  0  0  0  0
 41 42  1  0  0  0  0
 41 43  1  0  0  0  0
 41 44  1  0  0  0  0
 45 90  1  0  0  0  0
 45 91  1  0  0  0  0
M  CHG  2  18   1  34   1
M  END
