CatS_414:1_D
 OpenBabel12041818463D

 88 92  0  0  0  0  0  0  0  0999 V2000
   35.7164   -4.3704   41.3273 C   0  0  0  0  0  0  0  0  0  0  0  0
   35.4359   -4.5766   39.8670 N   0  3  0  0  0  0  0  0  0  0  0  0
   35.2940   -6.0161   39.4615 C   0  0  0  0  0  0  0  0  0  0  0  0
   36.0757   -6.2790   38.1639 C   0  0  0  0  0  0  0  0  0  0  0  0
   37.3666   -7.0570   38.4684 C   0  0  0  0  0  0  0  0  0  0  0  0
   38.0338   -6.4826   39.6456 N   0  0  0  0  0  0  0  0  0  0  0  0
   38.3404   -7.2610   40.7043 C   0  0  0  0  0  0  0  0  0  0  0  0
   38.1083   -8.4690   40.7228 O   0  0  0  0  0  0  0  0  0  0  0  0
   38.9869   -6.6854   41.9207 C   0  0  0  0  0  0  0  0  0  0  0  0
   39.3369   -7.5638   42.9338 C   0  0  0  0  0  0  0  0  0  0  0  0
   39.9377   -7.1242   44.1049 C   0  0  0  0  0  0  0  0  0  0  0  0
   40.2005   -5.7705   44.2739 C   0  0  0  0  0  0  0  0  0  0  0  0
   39.8616   -4.8895   43.2826 C   0  0  0  0  0  0  0  0  0  0  0  0
   39.2629   -5.3286   42.1205 C   0  0  0  0  0  0  0  0  0  0  0  0
   38.8731   -4.1124   40.9378 Cl  0  0  0  0  0  0  0  0  0  0  0  0
   40.2866   -8.0532   45.1483 C   0  0  0  0  0  0  0  0  0  0  0  0
   40.5945   -8.8392   46.0290 C   0  0  0  0  0  0  0  0  0  0  0  0
   40.9699   -9.7625   47.0681 C   0  0  0  0  0  0  0  0  0  0  0  0
   40.7495  -11.1242   46.9012 C   0  0  0  0  0  0  0  0  0  0  0  0
   41.1222  -12.0217   47.8800 C   0  0  0  0  0  0  0  0  0  0  0  0
   41.7155  -11.5384   49.0397 C   0  0  0  0  0  0  0  0  0  0  0  0
   41.9302  -10.1885   49.2152 C   0  0  0  0  0  0  0  0  0  0  0  0
   41.5619   -9.2967   48.2380 C   0  0  0  0  0  0  0  0  0  0  0  0
   41.8358   -7.5940   48.4611 Cl  0  0  0  0  0  0  0  0  0  0  0  0
   40.8788  -13.4394   47.6669 C   0  0  0  0  0  0  0  0  0  0  0  0
   41.2129  -14.2479   46.5545 C   0  0  0  0  0  0  0  0  0  0  0  0
   40.7436  -15.4536   46.8913 C   0  0  0  0  0  0  0  0  0  0  0  0
   40.1563  -15.4628   48.1157 N   0  0  0  0  0  0  0  0  0  0  0  0
   40.2620  -14.1903   48.5544 N   0  0  0  0  0  0  0  0  0  0  0  0
   39.5434  -16.5590   48.8786 C   0  0  0  0  0  0  0  0  0  0  0  0
   38.0355  -16.2994   49.0671 C   0  0  0  0  0  0  0  0  0  0  0  0
   37.1775  -17.2708   48.2264 C   0  0  0  0  0  0  0  0  0  0  0  0
   36.9891  -16.8371   46.7904 N   0  3  0  0  0  0  0  0  0  0  0  0
   37.1073  -15.3402   46.6334 C   0  0  0  0  0  0  0  0  0  0  0  0
   37.1765  -14.9114   45.1548 C   0  0  0  0  0  0  0  0  0  0  0  0
   35.6666  -15.4006   44.2837 S   0  0  0  0  0  0  0  0  0  0  0  0
   35.6818  -17.1734   44.6501 C   0  0  0  0  0  0  0  0  0  0  0  0
   35.7245  -17.3899   46.1745 C   0  0  0  0  0  0  0  0  0  0  0  0
   40.8788  -16.6653   45.9834 C   0  0  0  0  0  0  0  0  0  0  0  0
   41.0364  -16.2479   44.5060 C   0  0  0  0  0  0  0  0  0  0  0  0
   41.9867  -15.1294   44.3431 N   0  0  0  0  0  0  0  0  0  0  0  0
   41.9197  -13.9515   45.2369 C   0  0  0  0  0  0  0  0  0  0  0  0
   42.9012  -15.1782   43.3574 C   0  0  0  0  0  0  0  0  0  0  0  0
   43.0653  -16.1182   42.5913 O   0  0  0  0  0  0  0  0  0  0  0  0
   43.8075  -14.0252   43.1492 C   0  0  0  0  0  0  0  0  0  0  0  0
   43.4915  -13.1378   42.3700 O   0  0  0  0  0  0  0  0  0  0  0  0
   44.9337  -14.0438   43.8735 N   0  0  0  0  0  0  0  0  0  0  0  0
   35.0096   -3.7781   41.7141 H   0  0  0  0  0  0  0  0  0  0  0  0
   35.7128   -5.2518   41.7997 H   0  0  0  0  0  0  0  0  0  0  0  0
   36.6137   -3.9440   41.4408 H   0  0  0  0  0  0  0  0  0  0  0  0
   36.0954   -4.1848   39.3764 H   0  0  0  0  0  0  0  0  0  0  0  0
   34.6819   -4.1199   39.6388 H   0  0  0  0  0  0  0  0  0  0  0  0
   34.3272   -6.2268   39.3167 H   0  0  0  0  0  0  0  0  0  0  0  0
   35.6613   -6.5981   40.1870 H   0  0  0  0  0  0  0  0  0  0  0  0
   36.3068   -5.4065   37.7334 H   0  0  0  0  0  0  0  0  0  0  0  0
   35.5075   -6.8223   37.5457 H   0  0  0  0  0  0  0  0  0  0  0  0
   37.9793   -7.0065   37.6797 H   0  0  0  0  0  0  0  0  0  0  0  0
   37.1376   -8.0122   38.6558 H   0  0  0  0  0  0  0  0  0  0  0  0
   38.2324   -5.6282   39.6516 H   0  0  0  0  0  0  0  0  0  0  0  0
   39.1518   -8.5397   42.8181 H   0  0  0  0  0  0  0  0  0  0  0  0
   40.6338   -5.4423   45.1132 H   0  0  0  0  0  0  0  0  0  0  0  0
   40.0509   -3.9149   43.4027 H   0  0  0  0  0  0  0  0  0  0  0  0
   40.3165  -11.4567   46.0634 H   0  0  0  0  0  0  0  0  0  0  0  0
   41.9904  -12.1788   49.7568 H   0  0  0  0  0  0  0  0  0  0  0  0
   42.3558   -9.8572   50.0573 H   0  0  0  0  0  0  0  0  0  0  0  0
   39.9839  -16.6269   49.7738 H   0  0  0  0  0  0  0  0  0  0  0  0
   39.6653  -17.4143   48.3749 H   0  0  0  0  0  0  0  0  0  0  0  0
   37.8302  -15.3603   48.7914 H   0  0  0  0  0  0  0  0  0  0  0  0
   37.8131  -16.4445   50.0312 H   0  0  0  0  0  0  0  0  0  0  0  0
   36.2773  -17.3490   48.6546 H   0  0  0  0  0  0  0  0  0  0  0  0
   37.6665  -18.1428   48.2028 H   0  0  0  0  0  0  0  0  0  0  0  0
   37.6842  -17.1913   46.3218 H   0  0  0  0  0  0  0  0  0  0  0  0
   37.9360  -15.0308   47.0999 H   0  0  0  0  0  0  0  0  0  0  0  0
   36.2900  -14.9252   47.0333 H   0  0  0  0  0  0  0  0  0  0  0  0
   37.9657  -15.3460   44.7209 H   0  0  0  0  0  0  0  0  0  0  0  0
   37.2673  -13.9165   45.1099 H   0  0  0  0  0  0  0  0  0  0  0  0
   36.4856  -17.5941   44.2297 H   0  0  0  0  0  0  0  0  0  0  0  0
   34.8531  -17.5941   44.2809 H   0  0  0  0  0  0  0  0  0  0  0  0
   34.9364  -16.9355   46.5897 H   0  0  0  0  0  0  0  0  0  0  0  0
   35.7031  -18.3749   46.3457 H   0  0  0  0  0  0  0  0  0  0  0  0
   40.0635  -17.2366   46.0774 H   0  0  0  0  0  0  0  0  0  0  0  0
   41.6973  -17.1717   46.2549 H   0  0  0  0  0  0  0  0  0  0  0  0
   40.1438  -15.9702   44.1509 H   0  0  0  0  0  0  0  0  0  0  0  0
   41.3967  -17.0324   44.0012 H   0  0  0  0  0  0  0  0  0  0  0  0
   42.8505  -13.6440   45.4344 H   0  0  0  0  0  0  0  0  0  0  0  0
   41.3908  -13.2467   44.7641 H   0  0  0  0  0  0  0  0  0  0  0  0
   45.0966  -14.7169   44.4166 H   0  0  0  0  0  0  0  0  0  0  0  0
   45.5106  -13.3826   43.8073 H   0  0  0  0  0  0  0  0  0  0  0  0
  1  2  1  0  0  0  0
  1 48  1  0  0  0  0
  1 49  1  0  0  0  0
  1 50  1  0  0  0  0
  2  3  1  0  0  0  0
  2 51  1  0  0  0  0
  2 52  1  0  0  0  0
  3  4  1  0  0  0  0
  3 53  1  0  0  0  0
  3 54  1  0  0  0  0
  4  5  1  0  0  0  0
  4 55  1  0  0  0  0
  4 56  1  0  0  0  0
  5  6  1  0  0  0  0
  5 57  1  0  0  0  0
  5 58  1  0  0  0  0
  6  7  1  0  0  0  0
  6 59  1  0  0  0  0
  7  8  2  0  0  0  0
  7  9  1  0  0  0  0
  9 10  2  0  0  0  0
  9 14  1  0  0  0  0
 10 11  1  0  0  0  0
 10 60  1  0  0  0  0
 11 12  2  0  0  0  0
 11 16  1  0  0  0  0
 12 13  1  0  0  0  0
 12 61  1  0  0  0  0
 13 14  2  0  0  0  0
 13 62  1  0  0  0  0
 14 15  1  0  0  0  0
 16 17  3  0  0  0  0
 17 18  1  0  0  0  0
 18 19  2  0  0  0  0
 18 23  1  0  0  0  0
 19 20  1  0  0  0  0
 19 63  1  0  0  0  0
 20 21  2  0  0  0  0
 20 25  1  0  0  0  0
 21 22  1  0  0  0  0
 21 64  1  0  0  0  0
 22 23  2  0  0  0  0
 22 65  1  0  0  0  0
 23 24  1  0  0  0  0
 25 26  1  0  0  0  0
 25 29  2  0  0  0  0
 26 27  2  0  0  0  0
 26 42  1  0  0  0  0
 27 28  1  0  0  0  0
 27 39  1  0  0  0  0
 28 29  1  0  0  0  0
 28 30  1  0  0  0  0
 30 31  1  0  0  0  0
 30 66  1  0  0  0  0
 30 67  1  0  0  0  0
 31 32  1  0  0  0  0
 31 68  1  0  0  0  0
 31 69  1  0  0  0  0
 32 33  1  0  0  0  0
 32 70  1  0  0  0  0
 32 71  1  0  0  0  0
 33 34  1  0  0  0  0
 33 38  1  0  0  0  0
 33 72  1  0  0  0  0
 34 35  1  0  0  0  0
 34 73  1  0  0  0  0
 34 74  1  0  0  0  0
 35 36  1  0  0  0  0
 35 75  1  0  0  0  0
 35 76  1  0  0  0  0
 36 37  1  0  0  0  0
 37 38  1  0  0  0  0
 37 77  1  0  0  0  0
 37 78  1  0  0  0  0
 38 79  1  0  0  0  0
 38 80  1  0  0  0  0
 39 40  1  0  0  0  0
 39 81  1  0  0  0  0
 39 82  1  0  0  0  0
 40 41  1  0  0  0  0
 40 83  1  0  0  0  0
 40 84  1  0  0  0  0
 41 42  1  0  0  0  0
 41 43  1  0  0  0  0
 42 85  1  0  0  0  0
 42 86  1  0  0  0  0
 43 44  2  0  0  0  0
 43 45  1  0  0  0  0
 45 46  2  0  0  0  0
 45 47  1  0  0  0  0
 47 87  1  0  0  0  0
 47 88  1  0  0  0  0
M  CHG  2   2   1  33   1
M  END
