CatS_251:1_D
 OpenBabel12041818463D

 90 94  0  0  1  0  0  0  0  0999 V2000
   41.1683   -3.2909   52.2974 C   0  0  0  0  0  0  0  0  0  0  0  0
   41.0424   -3.1612   50.7664 C   0  0  1  0  0  0  0  0  0  0  0  0
   39.8458   -2.2659   50.3740 C   0  0  0  0  0  0  0  0  0  0  0  0
   40.0952   -0.7635   50.6266 C   0  0  0  0  0  0  0  0  0  0  0  0
   41.3713   -0.2952   49.9692 N   0  3  1  0  0  0  0  0  0  0  0  0
   42.5675   -1.1117   50.3924 C   0  0  0  0  0  0  0  0  0  0  0  0
   42.3484   -2.6206   50.1427 C   0  0  0  0  0  0  0  0  0  0  0  0
   41.2542   -0.2136   48.4671 C   0  0  0  0  0  0  0  0  0  0  0  0
   42.5761    0.1324   47.7540 C   0  0  0  0  0  0  0  0  0  0  0  0
   42.2808   -0.0016   45.9711 S   0  0  0  0  0  0  0  0  0  0  0  0
   42.8969   -1.5925   45.4003 C   0  0  0  0  0  0  0  0  0  0  0  0
   41.9649   -2.5369   45.0414 C   0  0  0  0  0  0  0  0  0  0  0  0
   42.3572   -3.7762   44.5743 C   0  0  0  0  0  0  0  0  0  0  0  0
   43.7082   -4.0576   44.4861 C   0  0  0  0  0  0  0  0  0  0  0  0
   44.6363   -3.1065   44.8409 C   0  0  0  0  0  0  0  0  0  0  0  0
   44.2552   -1.8614   45.3012 C   0  0  0  0  0  0  0  0  0  0  0  0
   45.3593   -0.8637   45.6507 C   0  0  0  0  0  0  0  0  0  0  0  0
   45.1374    0.3731   45.0535 F   0  0  0  0  0  0  0  0  0  0  0  0
   46.5925   -1.3260   45.2017 F   0  0  0  0  0  0  0  0  0  0  0  0
   45.4916   -0.6314   47.0165 F   0  0  0  0  0  0  0  0  0  0  0  0
   41.3516   -4.7516   44.1972 C   0  0  0  0  0  0  0  0  0  0  0  0
   41.0993   -6.0110   44.7893 C   0  0  0  0  0  0  0  0  0  0  0  0
   40.1007   -6.5019   44.0497 C   0  0  0  0  0  0  0  0  0  0  0  0
   39.7103   -5.6597   43.0501 N   0  0  0  0  0  0  0  0  0  0  0  0
   40.5157   -4.5810   43.1962 N   0  0  0  0  0  0  0  0  0  0  0  0
   38.7315   -5.7899   41.9558 C   0  0  0  0  0  0  0  0  0  0  0  0
   37.6017   -4.7728   41.7015 C   0  0  2  0  0  0  0  0  0  0  0  0
   37.2669   -4.6308   40.2004 C   0  0  0  0  0  0  0  0  0  0  0  0
   35.9187   -5.1835   39.8045 N   0  3  0  0  0  0  0  0  0  0  0  0
   35.7456   -5.2649   38.3068 C   0  0  0  0  0  0  0  0  0  0  0  0
   36.6122   -6.3902   37.7072 C   0  0  0  0  0  0  0  0  0  0  0  0
   36.2377   -7.7325   38.3620 C   0  0  0  0  0  0  0  0  0  0  0  0
   36.4586   -7.6482   39.8844 C   0  0  0  0  0  0  0  0  0  0  0  0
   35.6185   -6.4999   40.4818 C   0  0  0  0  0  0  0  0  0  0  0  0
   37.9442   -3.4961   42.2597 O   0  0  0  0  0  0  0  0  0  0  0  0
   39.5290   -7.8776   44.3519 C   0  0  0  0  0  0  0  0  0  0  0  0
   40.0487   -8.4639   45.6891 C   0  0  0  0  0  0  0  0  0  0  0  0
   41.4905   -8.2089   45.9108 N   0  0  0  0  0  0  0  0  0  0  0  0
   41.7031   -6.7468   45.9821 C   0  0  0  0  0  0  0  0  0  0  0  0
   42.1921   -9.1892   47.0157 S   0  0  0  0  0  0  0  0  0  0  0  0
   41.9336  -10.5486   46.6530 O   0  0  0  0  0  0  0  0  0  0  0  0
   43.5884   -8.8744   47.0518 O   0  0  0  0  0  0  0  0  0  0  0  0
   41.5094   -8.8925   48.6706 C   0  0  0  0  0  0  0  0  0  0  0  0
   40.8065   -4.4760   50.2420 O   0  0  0  0  0  0  0  0  0  0  0  0
   36.7819   -5.1223   42.1552 H   0  0  0  0  0  0  0  0  0  0  0  0
   41.0562   -4.2511   52.5531 H   0  0  0  0  0  0  0  0  0  0  0  0
   42.0676   -2.9669   52.5911 H   0  0  0  0  0  0  0  0  0  0  0  0
   40.4625   -2.7387   52.7413 H   0  0  0  0  0  0  0  0  0  0  0  0
   39.0475   -2.5508   50.9045 H   0  0  0  0  0  0  0  0  0  0  0  0
   39.7030   -2.3787   49.3907 H   0  0  0  0  0  0  0  0  0  0  0  0
   40.1572   -0.6042   51.6119 H   0  0  0  0  0  0  0  0  0  0  0  0
   39.3338   -0.2489   50.2323 H   0  0  0  0  0  0  0  0  0  0  0  0
   41.5257    0.5513   50.2695 H   0  0  0  0  0  0  0  0  0  0  0  0
   42.7343   -0.9631   51.3671 H   0  0  0  0  0  0  0  0  0  0  0  0
   43.3530   -0.8182   49.8475 H   0  0  0  0  0  0  0  0  0  0  0  0
   42.3202   -2.7805   49.1559 H   0  0  0  0  0  0  0  0  0  0  0  0
   43.1068   -3.1045   50.5793 H   0  0  0  0  0  0  0  0  0  0  0  0
   40.5786    0.4879   48.2404 H   0  0  0  0  0  0  0  0  0  0  0  0
   40.9838   -1.1220   48.1481 H   0  0  0  0  0  0  0  0  0  0  0  0
   43.2940   -0.5053   48.0331 H   0  0  0  0  0  0  0  0  0  0  0  0
   42.8749    1.0563   47.9930 H   0  0  0  0  0  0  0  0  0  0  0  0
   40.9909   -2.3241   45.1194 H   0  0  0  0  0  0  0  0  0  0  0  0
   44.0111   -4.9545   44.1638 H   0  0  0  0  0  0  0  0  0  0  0  0
   45.6098   -3.3216   44.7637 H   0  0  0  0  0  0  0  0  0  0  0  0
   38.2822   -6.6727   42.0927 H   0  0  0  0  0  0  0  0  0  0  0  0
   39.3121   -5.6390   41.1556 H   0  0  0  0  0  0  0  0  0  0  0  0
   37.9702   -5.1103   39.6754 H   0  0  0  0  0  0  0  0  0  0  0  0
   37.2386   -3.6501   40.0071 H   0  0  0  0  0  0  0  0  0  0  0  0
   35.2941   -4.5935   40.1081 H   0  0  0  0  0  0  0  0  0  0  0  0
   36.0115   -4.3918   37.8981 H   0  0  0  0  0  0  0  0  0  0  0  0
   34.7861   -5.4655   38.1090 H   0  0  0  0  0  0  0  0  0  0  0  0
   37.5783   -6.1934   37.8739 H   0  0  0  0  0  0  0  0  0  0  0  0
   36.4506   -6.4454   36.7219 H   0  0  0  0  0  0  0  0  0  0  0  0
   36.8077   -8.4603   37.9807 H   0  0  0  0  0  0  0  0  0  0  0  0
   35.2751   -7.9323   38.1793 H   0  0  0  0  0  0  0  0  0  0  0  0
   37.4274   -7.4837   40.0705 H   0  0  0  0  0  0  0  0  0  0  0  0
   36.1751   -8.5107   40.3035 H   0  0  0  0  0  0  0  0  0  0  0  0
   34.6478   -6.7113   40.3687 H   0  0  0  0  0  0  0  0  0  0  0  0
   35.8510   -6.4141   41.4507 H   0  0  0  0  0  0  0  0  0  0  0  0
   38.8578   -3.1999   41.9615 H   0  0  0  0  0  0  0  0  0  0  0  0
   39.7786   -8.4990   43.6092 H   0  0  0  0  0  0  0  0  0  0  0  0
   38.5371   -7.7799   44.4330 H   0  0  0  0  0  0  0  0  0  0  0  0
   39.8938   -9.4518   45.6871 H   0  0  0  0  0  0  0  0  0  0  0  0
   39.5492   -8.0117   46.4280 H   0  0  0  0  0  0  0  0  0  0  0  0
   41.2838   -6.3995   46.8209 H   0  0  0  0  0  0  0  0  0  0  0  0
   42.6896   -6.5831   45.9728 H   0  0  0  0  0  0  0  0  0  0  0  0
   42.2410   -8.5708   49.2716 H   0  0  0  0  0  0  0  0  0  0  0  0
   40.7875   -8.2024   48.6194 H   0  0  0  0  0  0  0  0  0  0  0  0
   41.1235   -9.7410   49.0326 H   0  0  0  0  0  0  0  0  0  0  0  0
   39.8337   -4.6164   50.0289 H   0  0  0  0  0  0  0  0  0  0  0  0
  1 46  1  0  0  0  0
  1 47  1  0  0  0  0
  1 48  1  0  0  0  0
  2  1  1  1  0  0  0
  2  3  1  0  0  0  0
  2  7  1  0  0  0  0
  2 44  1  0  0  0  0
  3  4  1  0  0  0  0
  3 49  1  0  0  0  0
  3 50  1  0  0  0  0
  4  5  1  0  0  0  0
  4 51  1  0  0  0  0
  4 52  1  0  0  0  0
  5  6  1  0  0  0  0
  5  8  1  0  0  0  0
  5 53  1  1  0  0  0
  6  7  1  0  0  0  0
  6 54  1  0  0  0  0
  6 55  1  0  0  0  0
  7 56  1  0  0  0  0
  7 57  1  0  0  0  0
  8  9  1  0  0  0  0
  8 58  1  0  0  0  0
  8 59  1  0  0  0  0
  9 10  1  0  0  0  0
  9 60  1  0  0  0  0
  9 61  1  0  0  0  0
 10 11  1  0  0  0  0
 11 12  2  0  0  0  0
 11 16  1  0  0  0  0
 12 13  1  0  0  0  0
 12 62  1  0  0  0  0
 13 14  2  0  0  0  0
 13 21  1  0  0  0  0
 14 15  1  0  0  0  0
 14 63  1  0  0  0  0
 15 16  2  0  0  0  0
 15 64  1  0  0  0  0
 16 17  1  0  0  0  0
 17 18  1  0  0  0  0
 17 19  1  0  0  0  0
 17 20  1  0  0  0  0
 21 22  1  0  0  0  0
 21 25  2  0  0  0  0
 22 23  2  0  0  0  0
 22 39  1  0  0  0  0
 23 24  1  0  0  0  0
 23 36  1  0  0  0  0
 24 25  1  0  0  0  0
 24 26  1  0  0  0  0
 26 27  1  0  0  0  0
 26 65  1  0  0  0  0
 26 66  1  0  0  0  0
 27 28  1  0  0  0  0
 27 35  1  0  0  0  0
 27 45  1  1  0  0  0
 28 29  1  0  0  0  0
 28 67  1  0  0  0  0
 28 68  1  0  0  0  0
 29 30  1  0  0  0  0
 29 34  1  0  0  0  0
 29 69  1  0  0  0  0
 30 31  1  0  0  0  0
 30 70  1  0  0  0  0
 30 71  1  0  0  0  0
 31 32  1  0  0  0  0
 31 72  1  0  0  0  0
 31 73  1  0  0  0  0
 32 33  1  0  0  0  0
 32 74  1  0  0  0  0
 32 75  1  0  0  0  0
 33 34  1  0  0  0  0
 33 76  1  0  0  0  0
 33 77  1  0  0  0  0
 34 78  1  0  0  0  0
 34 79  1  0  0  0  0
 35 80  1  0  0  0  0
 36 37  1  0  0  0  0
 36 81  1  0  0  0  0
 36 82  1  0  0  0  0
 37 38  1  0  0  0  0
 37 83  1  0  0  0  0
 37 84  1  0  0  0  0
 38 39  1  0  0  0  0
 38 40  1  0  0  0  0
 39 85  1  0  0  0  0
 39 86  1  0  0  0  0
 40 41  2  0  0  0  0
 40 42  2  0  0  0  0
 40 43  1  0  0  0  0
 43 87  1  0  0  0  0
 43 88  1  0  0  0  0
 43 89  1  0  0  0  0
 44 90  1  0  0  0  0
M  CHG  2   5   1  29   1
M  END
