CatS_49:1_D
 OpenBabel12041818463D

 99104  0  0  0  0  0  0  0  0999 V2000
   47.5874    0.4030   42.1250 C   0  0  0  0  0  0  0  0  0  0  0  0
   47.6846   -1.2863   42.7721 S   0  0  0  0  0  0  0  0  0  0  0  0
   47.9613   -2.1624   41.6797 O   0  0  0  0  0  0  0  0  0  0  0  0
   48.5486   -1.2748   43.9080 O   0  0  0  0  0  0  0  0  0  0  0  0
   46.2266   -1.7216   43.3251 N   0  0  0  0  0  0  0  0  0  0  0  0
   45.1278   -1.8922   42.3547 C   0  0  0  0  0  0  0  0  0  0  0  0
   44.0705   -2.8651   42.9236 C   0  0  0  0  0  0  0  0  0  0  0  0
   43.7510   -2.6052   44.3894 C   0  0  0  0  0  0  0  0  0  0  0  0
   44.4974   -1.7586   45.1012 C   0  0  0  0  0  0  0  0  0  0  0  0
   43.8808   -1.7452   46.3708 C   0  0  0  0  0  0  0  0  0  0  0  0
   42.8709   -2.5926   46.3456 N   0  0  0  0  0  0  0  0  0  0  0  0
   42.7385   -3.1556   45.1145 N   0  0  0  0  0  0  0  0  0  0  0  0
   41.6114   -4.0198   44.7110 C   0  0  0  0  0  0  0  0  0  0  0  0
   41.7502   -5.5393   44.4451 C   0  0  0  0  0  0  0  0  0  0  0  0
   40.4346   -6.1371   43.9038 C   0  0  0  0  0  0  0  0  0  0  0  0
   39.9902   -5.7859   42.5048 N   0  3  1  0  0  0  0  0  0  0  0  0
   40.1861   -6.9300   41.5267 C   0  0  0  0  0  0  0  0  0  0  0  0
   39.4527   -6.7403   40.1819 C   0  0  0  0  0  0  0  0  0  0  0  0
   37.9613   -6.4505   40.4412 C   0  0  1  0  0  0  0  0  0  0  0  0
   37.8876   -5.1084   41.1905 C   0  0  0  0  0  0  0  0  0  0  0  0
   38.5696   -5.2641   42.5636 C   0  0  0  0  0  0  0  0  0  0  0  0
   37.0196   -6.4825   39.3076 N   0  0  0  0  0  0  0  0  0  0  0  0
   36.1133   -7.6171   39.0959 C   0  0  0  0  0  0  0  0  0  0  0  0
   35.6846   -7.3563   37.6408 C   0  0  0  0  0  0  0  0  0  0  0  0
   35.8686   -5.8477   37.4074 C   0  0  0  0  0  0  0  0  0  0  0  0
   36.9180   -5.4822   38.4229 C   0  0  0  0  0  0  0  0  0  0  0  0
   37.5637   -4.4441   38.4122 O   0  0  0  0  0  0  0  0  0  0  0  0
   44.2470   -0.9229   47.5146 C   0  0  0  0  0  0  0  0  0  0  0  0
   45.3578   -1.1919   48.2970 C   0  0  0  0  0  0  0  0  0  0  0  0
   45.6600   -0.3973   49.3812 C   0  0  0  0  0  0  0  0  0  0  0  0
   44.8740    0.6853   49.7289 C   0  0  0  0  0  0  0  0  0  0  0  0
   43.7632    0.9510   48.9420 C   0  0  0  0  0  0  0  0  0  0  0  0
   43.4622    0.1592   47.8603 C   0  0  0  0  0  0  0  0  0  0  0  0
   42.6468    2.3200   49.2850 S   0  0  0  0  0  0  0  0  0  0  0  0
   41.0228    1.5816   49.6240 C   0  0  0  0  0  0  0  0  0  0  0  0
   41.0368    0.5120   50.7388 C   0  0  0  0  0  0  0  0  0  0  0  0
   40.1099   -0.6491   50.4777 N   0  3  0  0  0  0  0  0  0  0  0  0
   40.7088   -1.7861   49.6955 C   0  0  0  0  0  0  0  0  0  0  0  0
   41.7648   -2.5464   50.5288 C   0  0  0  0  0  0  0  0  0  0  0  0
   41.2089   -3.7255   51.3095 C   0  0  0  0  0  0  0  0  0  0  0  0
   40.7078   -3.5503   52.5809 C   0  0  0  0  0  0  0  0  0  0  0  0
   40.2047   -4.6233   53.2806 C   0  0  0  0  0  0  0  0  0  0  0  0
   40.2013   -5.8760   52.7112 C   0  0  0  0  0  0  0  0  0  0  0  0
   40.7018   -6.0551   51.4421 C   0  0  0  0  0  0  0  0  0  0  0  0
   41.2045   -4.9815   50.7436 C   0  0  0  0  0  0  0  0  0  0  0  0
   45.2674    1.5083   50.9554 C   0  0  0  0  0  0  0  0  0  0  0  0
   45.5598    2.8166   50.5855 F   0  0  0  0  0  0  0  0  0  0  0  0
   46.4035    0.9909   51.5691 F   0  0  0  0  0  0  0  0  0  0  0  0
   44.2795    1.5773   51.9328 F   0  0  0  0  0  0  0  0  0  0  0  0
   45.7037   -1.0315   44.5221 C   0  0  0  0  0  0  0  0  0  0  0  0
   46.6524    0.7402   42.2342 H   0  0  0  0  0  0  0  0  0  0  0  0
   48.2193    0.9938   42.6267 H   0  0  0  0  0  0  0  0  0  0  0  0
   47.8370    0.4075   41.1567 H   0  0  0  0  0  0  0  0  0  0  0  0
   45.4929   -2.2587   41.4989 H   0  0  0  0  0  0  0  0  0  0  0  0
   44.6991   -1.0051   42.1835 H   0  0  0  0  0  0  0  0  0  0  0  0
   44.4127   -3.8001   42.8303 H   0  0  0  0  0  0  0  0  0  0  0  0
   43.2265   -2.7259   42.4055 H   0  0  0  0  0  0  0  0  0  0  0  0
   41.2515   -3.6242   43.8661 H   0  0  0  0  0  0  0  0  0  0  0  0
   41.0588   -4.0197   45.5444 H   0  0  0  0  0  0  0  0  0  0  0  0
   41.9932   -5.9999   45.2987 H   0  0  0  0  0  0  0  0  0  0  0  0
   42.4632   -5.6749   43.7571 H   0  0  0  0  0  0  0  0  0  0  0  0
   39.7048   -5.8526   44.5254 H   0  0  0  0  0  0  0  0  0  0  0  0
   40.6207   -7.1184   43.8545 H   0  0  0  0  0  0  0  0  0  0  0  0
   40.5082   -5.0949   42.2143 H   0  0  0  0  0  0  0  0  0  0  0  0
   39.8526   -7.7706   41.9535 H   0  0  0  0  0  0  0  0  0  0  0  0
   41.1634   -6.9674   41.3184 H   0  0  0  0  0  0  0  0  0  0  0  0
   39.5421   -7.5711   39.6326 H   0  0  0  0  0  0  0  0  0  0  0  0
   39.8581   -5.9705   39.6890 H   0  0  0  0  0  0  0  0  0  0  0  0
   37.6302   -7.2308   40.9718 H   0  0  0  0  0  0  0  0  0  0  0  0
   36.9313   -4.8444   41.3159 H   0  0  0  0  0  0  0  0  0  0  0  0
   38.3535   -4.3994   40.6611 H   0  0  0  0  0  0  0  0  0  0  0  0
   38.5822   -4.3703   43.0119 H   0  0  0  0  0  0  0  0  0  0  0  0
   38.0379   -5.9448   43.0677 H   0  0  0  0  0  0  0  0  0  0  0  0
   35.3355   -7.5941   39.7238 H   0  0  0  0  0  0  0  0  0  0  0  0
   36.5218   -8.5155   39.2570 H   0  0  0  0  0  0  0  0  0  0  0  0
   34.7286   -7.6171   37.5067 H   0  0  0  0  0  0  0  0  0  0  0  0
   36.2291   -7.8941   36.9971 H   0  0  0  0  0  0  0  0  0  0  0  0
   35.0169   -5.3494   37.5694 H   0  0  0  0  0  0  0  0  0  0  0  0
   36.1290   -5.6199   36.4691 H   0  0  0  0  0  0  0  0  0  0  0  0
   45.9453   -1.9695   48.0731 H   0  0  0  0  0  0  0  0  0  0  0  0
   46.4683   -0.6091   49.9305 H   0  0  0  0  0  0  0  0  0  0  0  0
   42.6549    0.3718   47.3098 H   0  0  0  0  0  0  0  0  0  0  0  0
   40.6872    1.1576   48.7828 H   0  0  0  0  0  0  0  0  0  0  0  0
   40.4307    2.3214   49.9434 H   0  0  0  0  0  0  0  0  0  0  0  0
   40.7679    0.9466   51.5984 H   0  0  0  0  0  0  0  0  0  0  0  0
   41.9646    0.1407   50.7753 H   0  0  0  0  0  0  0  0  0  0  0  0
   39.3800   -0.3463   50.0239 H   0  0  0  0  0  0  0  0  0  0  0  0
   39.7699   -0.9521   51.2661 H   0  0  0  0  0  0  0  0  0  0  0  0
   41.1412   -1.4233   48.8700 H   0  0  0  0  0  0  0  0  0  0  0  0
   39.9772   -2.4248   49.4571 H   0  0  0  0  0  0  0  0  0  0  0  0
   42.1774   -1.9049   51.1756 H   0  0  0  0  0  0  0  0  0  0  0  0
   42.4289   -2.9192   49.8807 H   0  0  0  0  0  0  0  0  0  0  0  0
   40.7098   -2.6408   52.9966 H   0  0  0  0  0  0  0  0  0  0  0  0
   39.8414   -4.4926   54.2031 H   0  0  0  0  0  0  0  0  0  0  0  0
   39.8354   -6.6557   53.2193 H   0  0  0  0  0  0  0  0  0  0  0  0
   40.7001   -6.9651   51.0276 H   0  0  0  0  0  0  0  0  0  0  0  0
   41.5681   -5.1134   49.8214 H   0  0  0  0  0  0  0  0  0  0  0  0
   45.4364   -0.1009   44.2719 H   0  0  0  0  0  0  0  0  0  0  0  0
   46.4235   -1.0172   45.2160 H   0  0  0  0  0  0  0  0  0  0  0  0
  1  2  1  0  0  0  0
  1 51  1  0  0  0  0
  1 52  1  0  0  0  0
  1 53  1  0  0  0  0
  2  3  2  0  0  0  0
  2  4  2  0  0  0  0
  2  5  1  0  0  0  0
  5  6  1  0  0  0  0
  5 50  1  0  0  0  0
  6  7  1  0  0  0  0
  6 54  1  0  0  0  0
  6 55  1  0  0  0  0
  7  8  1  0  0  0  0
  7 56  1  0  0  0  0
  7 57  1  0  0  0  0
  8  9  2  0  0  0  0
  8 12  1  0  0  0  0
  9 10  1  0  0  0  0
  9 50  1  0  0  0  0
 10 11  2  0  0  0  0
 10 28  1  0  0  0  0
 11 12  1  0  0  0  0
 12 13  1  0  0  0  0
 13 14  1  0  0  0  0
 13 58  1  0  0  0  0
 13 59  1  0  0  0  0
 14 15  1  0  0  0  0
 14 60  1  0  0  0  0
 14 61  1  0  0  0  0
 15 16  1  0  0  0  0
 15 62  1  0  0  0  0
 15 63  1  0  0  0  0
 16 17  1  0  0  0  0
 16 21  1  0  0  0  0
 16 64  1  6  0  0  0
 17 18  1  0  0  0  0
 17 65  1  0  0  0  0
 17 66  1  0  0  0  0
 18 19  1  0  0  0  0
 18 67  1  0  0  0  0
 18 68  1  0  0  0  0
 19 20  1  0  0  0  0
 19 22  1  0  0  0  0
 19 69  1  1  0  0  0
 20 21  1  0  0  0  0
 20 70  1  0  0  0  0
 20 71  1  0  0  0  0
 21 72  1  0  0  0  0
 21 73  1  0  0  0  0
 22 23  1  0  0  0  0
 22 26  1  0  0  0  0
 23 24  1  0  0  0  0
 23 74  1  0  0  0  0
 23 75  1  0  0  0  0
 24 25  1  0  0  0  0
 24 76  1  0  0  0  0
 24 77  1  0  0  0  0
 25 26  1  0  0  0  0
 25 78  1  0  0  0  0
 25 79  1  0  0  0  0
 26 27  2  0  0  0  0
 28 29  2  0  0  0  0
 28 33  1  0  0  0  0
 29 30  1  0  0  0  0
 29 80  1  0  0  0  0
 30 31  2  0  0  0  0
 30 81  1  0  0  0  0
 31 32  1  0  0  0  0
 31 46  1  0  0  0  0
 32 33  2  0  0  0  0
 32 34  1  0  0  0  0
 33 82  1  0  0  0  0
 34 35  1  0  0  0  0
 35 36  1  0  0  0  0
 35 83  1  0  0  0  0
 35 84  1  0  0  0  0
 36 37  1  0  0  0  0
 36 85  1  0  0  0  0
 36 86  1  0  0  0  0
 37 38  1  0  0  0  0
 37 87  1  0  0  0  0
 37 88  1  0  0  0  0
 38 39  1  0  0  0  0
 38 89  1  0  0  0  0
 38 90  1  0  0  0  0
 39 40  1  0  0  0  0
 39 91  1  0  0  0  0
 39 92  1  0  0  0  0
 40 41  2  0  0  0  0
 40 45  1  0  0  0  0
 41 42  1  0  0  0  0
 41 93  1  0  0  0  0
 42 43  2  0  0  0  0
 42 94  1  0  0  0  0
 43 44  1  0  0  0  0
 43 95  1  0  0  0  0
 44 45  2  0  0  0  0
 44 96  1  0  0  0  0
 45 97  1  0  0  0  0
 46 47  1  0  0  0  0
 46 48  1  0  0  0  0
 46 49  1  0  0  0  0
 50 98  1  0  0  0  0
 50 99  1  0  0  0  0
M  CHG  2  16   1  37   1
M  END
