CatS_118:1_D
 OpenBabel12041818463D

 96101  0  0  1  0  0  0  0  0999 V2000
   44.3245   -2.8356   43.3157 C   0  0  0  0  0  0  0  0  0  0  0  0
   43.2691   -2.5352   44.7644 S   0  0  0  0  0  0  0  0  0  0  0  0
   42.2685   -1.5839   44.4141 O   0  0  0  0  0  0  0  0  0  0  0  0
   44.1185   -2.1613   45.8466 O   0  0  0  0  0  0  0  0  0  0  0  0
   42.5067   -3.9122   45.1979 N   0  0  0  0  0  0  0  0  0  0  0  0
   43.3264   -5.0141   45.7398 C   0  0  0  0  0  0  0  0  0  0  0  0
   42.4339   -6.0345   46.4781 C   0  0  0  0  0  0  0  0  0  0  0  0
   41.2647   -6.5004   45.6191 C   0  0  0  0  0  0  0  0  0  0  0  0
   40.8982   -5.7710   44.5626 C   0  0  0  0  0  0  0  0  0  0  0  0
   39.8447   -6.5186   43.9905 C   0  0  0  0  0  0  0  0  0  0  0  0
   39.6450   -7.5849   44.7352 N   0  0  0  0  0  0  0  0  0  0  0  0
   40.5009   -7.6211   45.7875 N   0  0  0  0  0  0  0  0  0  0  0  0
   40.4594   -8.6632   46.8385 C   0  0  0  0  0  0  0  0  0  0  0  0
   41.5272   -9.7717   46.8031 C   0  0  1  0  0  0  0  0  0  0  0  0
   40.9519  -11.2041   46.7898 C   0  0  0  0  0  0  0  0  0  0  0  0
   41.9355  -12.2079   47.3465 N   0  3  0  0  0  0  0  0  0  0  0  0
   41.3730  -13.1107   48.4133 C   0  0  0  0  0  0  0  0  0  0  0  0
   40.2072  -13.9106   47.8071 C   0  0  0  0  0  0  0  0  0  0  0  0
   40.3436  -14.3239   46.3949 N   0  0  0  0  0  0  0  0  0  0  0  0
   41.6842  -14.1718   45.7840 C   0  0  0  0  0  0  0  0  0  0  0  0
   42.6056  -13.0242   46.2750 C   0  0  0  0  0  0  0  0  0  0  0  0
   39.1936  -14.2994   45.5838 C   0  0  0  0  0  0  0  0  0  0  0  0
   38.1032  -15.1049   45.8845 C   0  0  0  0  0  0  0  0  0  0  0  0
   36.9725  -15.0892   45.1032 C   0  0  0  0  0  0  0  0  0  0  0  0
   36.9072  -14.2665   44.0045 C   0  0  0  0  0  0  0  0  0  0  0  0
   37.9807  -13.4570   43.6873 C   0  0  0  0  0  0  0  0  0  0  0  0
   39.1154  -13.4766   44.4713 C   0  0  0  0  0  0  0  0  0  0  0  0
   37.9194  -12.6381   42.6028 O   0  0  0  0  0  0  0  0  0  0  0  0
   42.4016   -9.5684   45.6827 O   0  0  0  0  0  0  0  0  0  0  0  0
   39.0827   -6.2369   42.7855 C   0  0  0  0  0  0  0  0  0  0  0  0
   38.2836   -5.1128   42.6982 C   0  0  0  0  0  0  0  0  0  0  0  0
   37.5697   -4.8478   41.5536 C   0  0  0  0  0  0  0  0  0  0  0  0
   37.6258   -5.6845   40.4571 C   0  0  0  0  0  0  0  0  0  0  0  0
   38.4321   -6.8122   40.5462 C   0  0  0  0  0  0  0  0  0  0  0  0
   39.1444   -7.0865   41.6940 C   0  0  0  0  0  0  0  0  0  0  0  0
   38.6066   -7.9499   39.1625 S   0  0  0  0  0  0  0  0  0  0  0  0
   40.3365   -7.9680   38.6235 C   0  0  0  0  0  0  0  0  0  0  0  0
   40.4659   -8.8721   37.3797 C   0  0  0  0  0  0  0  0  0  0  0  0
   41.7360   -8.6331   36.6017 N   0  3  2  0  0  0  0  0  0  0  0  0
   42.2737   -9.9058   35.9854 C   0  0  0  0  0  0  0  0  0  0  0  0
   43.7575   -9.7921   35.5598 C   0  0  0  0  0  0  0  0  0  0  0  0
   44.1091   -8.3305   35.2277 C   0  0  1  0  0  0  0  0  0  0  0  0
   43.9528   -7.4357   36.4791 C   0  0  0  0  0  0  0  0  0  0  0  0
   42.7892   -7.8964   37.3905 C   0  0  0  0  0  0  0  0  0  0  0  0
   45.4186   -8.2652   34.7674 F   0  0  0  0  0  0  0  0  0  0  0  0
   36.7933   -5.2875   39.2347 C   0  0  0  0  0  0  0  0  0  0  0  0
   37.5445   -4.5405   38.3330 F   0  0  0  0  0  0  0  0  0  0  0  0
   36.3277   -6.4081   38.5541 F   0  0  0  0  0  0  0  0  0  0  0  0
   35.6729   -4.5219   39.5467 F   0  0  0  0  0  0  0  0  0  0  0  0
   41.5831   -4.4614   44.1730 C   0  0  0  0  0  0  0  0  0  0  0  0
   42.0384   -9.6977   47.6593 H   0  0  0  0  0  0  0  0  0  0  0  0
   44.2443   -3.7958   43.0479 H   0  0  0  0  0  0  0  0  0  0  0  0
   44.0346   -2.2496   42.5591 H   0  0  0  0  0  0  0  0  0  0  0  0
   45.2757   -2.6269   43.5430 H   0  0  0  0  0  0  0  0  0  0  0  0
   44.0021   -4.6421   46.3763 H   0  0  0  0  0  0  0  0  0  0  0  0
   43.7893   -5.4765   44.9837 H   0  0  0  0  0  0  0  0  0  0  0  0
   42.0770   -5.6103   47.3102 H   0  0  0  0  0  0  0  0  0  0  0  0
   42.9942   -6.8344   46.6931 H   0  0  0  0  0  0  0  0  0  0  0  0
   39.5651   -9.1072   46.7832 H   0  0  0  0  0  0  0  0  0  0  0  0
   40.6455   -8.1679   47.6871 H   0  0  0  0  0  0  0  0  0  0  0  0
   40.7264  -11.4554   45.8486 H   0  0  0  0  0  0  0  0  0  0  0  0
   40.1356  -11.2168   47.3673 H   0  0  0  0  0  0  0  0  0  0  0  0
   42.5994  -11.7216   47.7354 H   0  0  0  0  0  0  0  0  0  0  0  0
   41.0458  -12.5631   49.1834 H   0  0  0  0  0  0  0  0  0  0  0  0
   42.0812  -13.7346   48.7439 H   0  0  0  0  0  0  0  0  0  0  0  0
   39.3828  -13.3496   47.8819 H   0  0  0  0  0  0  0  0  0  0  0  0
   40.1798  -14.7650   48.3259 H   0  0  0  0  0  0  0  0  0  0  0  0
   41.5477  -14.0419   44.8018 H   0  0  0  0  0  0  0  0  0  0  0  0
   42.1694  -15.0022   46.0579 H   0  0  0  0  0  0  0  0  0  0  0  0
   43.4503  -13.4147   46.6409 H   0  0  0  0  0  0  0  0  0  0  0  0
   42.8037  -12.4254   45.4990 H   0  0  0  0  0  0  0  0  0  0  0  0
   38.1412  -15.7063   46.6826 H   0  0  0  0  0  0  0  0  0  0  0  0
   36.1971  -15.6768   45.3344 H   0  0  0  0  0  0  0  0  0  0  0  0
   36.0846  -14.2538   43.4360 H   0  0  0  0  0  0  0  0  0  0  0  0
   39.8903  -12.8906   44.2344 H   0  0  0  0  0  0  0  0  0  0  0  0
   37.5764  -11.7246   42.8485 H   0  0  0  0  0  0  0  0  0  0  0  0
   42.0609  -10.0331   44.8586 H   0  0  0  0  0  0  0  0  0  0  0  0
   38.2240   -4.4861   43.4751 H   0  0  0  0  0  0  0  0  0  0  0  0
   36.9962   -4.0295   41.5145 H   0  0  0  0  0  0  0  0  0  0  0  0
   39.7121   -7.9086   41.7389 H   0  0  0  0  0  0  0  0  0  0  0  0
   40.9148   -8.3207   39.3591 H   0  0  0  0  0  0  0  0  0  0  0  0
   40.6291   -7.0391   38.3964 H   0  0  0  0  0  0  0  0  0  0  0  0
   39.6851   -8.7018   36.7785 H   0  0  0  0  0  0  0  0  0  0  0  0
   40.4893   -9.8186   37.7014 H   0  0  0  0  0  0  0  0  0  0  0  0
   41.5095   -8.0901   35.9046 H   0  0  0  0  0  0  0  0  0  0  0  0
   41.7247  -10.1279   35.1797 H   0  0  0  0  0  0  0  0  0  0  0  0
   42.2176  -10.6216   36.6814 H   0  0  0  0  0  0  0  0  0  0  0  0
   43.9156  -10.3630   34.7542 H   0  0  0  0  0  0  0  0  0  0  0  0
   44.3363  -10.1005   36.3147 H   0  0  0  0  0  0  0  0  0  0  0  0
   43.4840   -8.0005   34.5204 H   0  0  0  0  0  0  0  0  0  0  0  0
   43.7808   -6.4956   36.1844 H   0  0  0  0  0  0  0  0  0  0  0  0
   44.7985   -7.5010   37.0089 H   0  0  0  0  0  0  0  0  0  0  0  0
   43.1484   -8.5008   38.1015 H   0  0  0  0  0  0  0  0  0  0  0  0
   42.3690   -7.0859   37.7987 H   0  0  0  0  0  0  0  0  0  0  0  0
   42.1048   -4.6180   43.3343 H   0  0  0  0  0  0  0  0  0  0  0  0
   40.8537   -3.7865   44.0613 H   0  0  0  0  0  0  0  0  0  0  0  0
  1  2  1  0  0  0  0
  1 52  1  0  0  0  0
  1 53  1  0  0  0  0
  1 54  1  0  0  0  0
  2  3  2  0  0  0  0
  2  4  2  0  0  0  0
  2  5  1  0  0  0  0
  5  6  1  0  0  0  0
  5 50  1  0  0  0  0
  6  7  1  0  0  0  0
  6 55  1  0  0  0  0
  6 56  1  0  0  0  0
  7  8  1  0  0  0  0
  7 57  1  0  0  0  0
  7 58  1  0  0  0  0
  8  9  2  0  0  0  0
  8 12  1  0  0  0  0
  9 10  1  0  0  0  0
  9 50  1  0  0  0  0
 10 11  2  0  0  0  0
 10 30  1  0  0  0  0
 11 12  1  0  0  0  0
 12 13  1  0  0  0  0
 13 14  1  0  0  0  0
 13 59  1  0  0  0  0
 13 60  1  0  0  0  0
 14 15  1  0  0  0  0
 14 29  1  0  0  0  0
 14 51  1  1  0  0  0
 15 16  1  0  0  0  0
 15 61  1  0  0  0  0
 15 62  1  0  0  0  0
 16 17  1  0  0  0  0
 16 21  1  0  0  0  0
 16 63  1  0  0  0  0
 17 18  1  0  0  0  0
 17 64  1  0  0  0  0
 17 65  1  0  0  0  0
 18 19  1  0  0  0  0
 18 66  1  0  0  0  0
 18 67  1  0  0  0  0
 19 20  1  0  0  0  0
 19 22  1  0  0  0  0
 20 21  1  0  0  0  0
 20 68  1  0  0  0  0
 20 69  1  0  0  0  0
 21 70  1  0  0  0  0
 21 71  1  0  0  0  0
 22 23  2  0  0  0  0
 22 27  1  0  0  0  0
 23 24  1  0  0  0  0
 23 72  1  0  0  0  0
 24 25  2  0  0  0  0
 24 73  1  0  0  0  0
 25 26  1  0  0  0  0
 25 74  1  0  0  0  0
 26 27  2  0  0  0  0
 26 28  1  0  0  0  0
 27 75  1  0  0  0  0
 28 76  1  0  0  0  0
 29 77  1  0  0  0  0
 30 31  2  0  0  0  0
 30 35  1  0  0  0  0
 31 32  1  0  0  0  0
 31 78  1  0  0  0  0
 32 33  2  0  0  0  0
 32 79  1  0  0  0  0
 33 34  1  0  0  0  0
 33 46  1  0  0  0  0
 34 35  2  0  0  0  0
 34 36  1  0  0  0  0
 35 80  1  0  0  0  0
 36 37  1  0  0  0  0
 37 38  1  0  0  0  0
 37 81  1  0  0  0  0
 37 82  1  0  0  0  0
 38 39  1  0  0  0  0
 38 83  1  0  0  0  0
 38 84  1  0  0  0  0
 39 40  1  0  0  0  0
 39 44  1  0  0  0  0
 39 85  1  6  0  0  0
 40 41  1  0  0  0  0
 40 86  1  0  0  0  0
 40 87  1  0  0  0  0
 41 42  1  0  0  0  0
 41 88  1  0  0  0  0
 41 89  1  0  0  0  0
 42 43  1  0  0  0  0
 42 45  1  0  0  0  0
 42 90  1  6  0  0  0
 43 44  1  0  0  0  0
 43 91  1  0  0  0  0
 43 92  1  0  0  0  0
 44 93  1  0  0  0  0
 44 94  1  0  0  0  0
 46 47  1  0  0  0  0
 46 48  1  0  0  0  0
 46 49  1  0  0  0  0
 50 95  1  0  0  0  0
 50 96  1  0  0  0  0
M  CHG  2  16   1  39   1
M  END
