CatS_393:1_D
 OpenBabel12041818463D

 85 90  0  0  0  0  0  0  0  0999 V2000
   43.5749   -7.5118   36.2223 C   0  0  0  0  0  0  0  0  0  0  0  0
   43.7907   -8.6396   35.4761 C   0  0  0  0  0  0  0  0  0  0  0  0
   43.0009   -9.7446   35.6862 C   0  0  0  0  0  0  0  0  0  0  0  0
   42.0081   -9.7942   36.5964 N   0  0  0  0  0  0  0  0  0  0  0  0
   41.8237   -8.6684   37.3126 C   0  0  0  0  0  0  0  0  0  0  0  0
   42.5744   -7.5279   37.1567 C   0  0  0  0  0  0  0  0  0  0  0  0
   40.7393   -8.6353   38.3719 C   0  0  0  0  0  0  0  0  0  0  0  0
   39.4568   -8.0062   37.8840 N   0  3  0  0  0  0  0  0  0  0  0  0
   38.2530   -8.1545   38.7877 C   0  0  0  0  0  0  0  0  0  0  0  0
   37.9118   -6.9404   39.6452 C   0  0  0  0  0  0  0  0  0  0  0  0
   38.7370   -6.5723   40.6757 C   0  0  0  0  0  0  0  0  0  0  0  0
   38.4438   -5.4705   41.4680 C   0  0  0  0  0  0  0  0  0  0  0  0
   37.2801   -4.7461   41.2352 C   0  0  0  0  0  0  0  0  0  0  0  0
   36.4478   -5.1213   40.2112 C   0  0  0  0  0  0  0  0  0  0  0  0
   36.7613   -6.2084   39.4165 C   0  0  0  0  0  0  0  0  0  0  0  0
   35.6926   -6.6644   38.1224 Cl  0  0  0  0  0  0  0  0  0  0  0  0
   39.3923   -5.1222   42.4929 C   0  0  0  0  0  0  0  0  0  0  0  0
   40.2241   -4.8959   43.3553 C   0  0  0  0  0  0  0  0  0  0  0  0
   41.2303   -4.7016   44.3663 C   0  0  0  0  0  0  0  0  0  0  0  0
   41.8573   -3.4747   44.5457 C   0  0  0  0  0  0  0  0  0  0  0  0
   42.8059   -3.3145   45.5358 C   0  0  0  0  0  0  0  0  0  0  0  0
   43.1326   -4.4016   46.3368 C   0  0  0  0  0  0  0  0  0  0  0  0
   42.5188   -5.6213   46.1596 C   0  0  0  0  0  0  0  0  0  0  0  0
   41.5688   -5.7777   45.1820 C   0  0  0  0  0  0  0  0  0  0  0  0
   40.7946   -7.3201   44.9640 Cl  0  0  0  0  0  0  0  0  0  0  0  0
   43.4314   -2.0144   45.7125 C   0  0  0  0  0  0  0  0  0  0  0  0
   43.1313   -0.9896   46.6409 C   0  0  0  0  0  0  0  0  0  0  0  0
   43.9927   -0.0185   46.3269 C   0  0  0  0  0  0  0  0  0  0  0  0
   44.8052   -0.3544   45.2918 N   0  0  0  0  0  0  0  0  0  0  0  0
   44.4173   -1.6010   44.9474 N   0  0  0  0  0  0  0  0  0  0  0  0
   45.8365    0.4244   44.5886 C   0  0  0  0  0  0  0  0  0  0  0  0
   47.1238   -0.3567   44.2647 C   0  0  0  0  0  0  0  0  0  0  0  0
   47.2676   -0.5707   42.7425 C   0  0  0  0  0  0  0  0  0  0  0  0
   46.9394   -1.9788   42.3060 N   0  3  0  0  0  0  0  0  0  0  0  0
   45.5000   -2.1135   41.8701 C   0  0  0  0  0  0  0  0  0  0  0  0
   45.2007   -1.3137   40.5878 C   0  0  0  0  0  0  0  0  0  0  0  0
   46.2032   -1.9364   39.2152 S   0  0  0  0  0  0  0  0  0  0  0  0
   47.8464   -1.7436   39.9503 C   0  0  0  0  0  0  0  0  0  0  0  0
   47.9192   -2.5082   41.2856 C   0  0  0  0  0  0  0  0  0  0  0  0
   44.0130    1.3161   47.0499 C   0  0  0  0  0  0  0  0  0  0  0  0
   43.3254    1.2740   48.4359 C   0  0  0  0  0  0  0  0  0  0  0  0
   42.1932    0.3283   48.5915 N   0  0  0  0  0  0  0  0  0  0  0  0
   42.1035   -0.8913   47.7586 C   0  0  0  0  0  0  0  0  0  0  0  0
   41.2361    0.5129   49.5354 C   0  0  0  0  0  0  0  0  0  0  0  0
   40.2009   -0.1621   49.5390 O   0  0  0  0  0  0  0  0  0  0  0  0
   41.4397    1.4341   50.4989 N   0  0  0  0  0  0  0  0  0  0  0  0
   44.1356   -6.6947   36.0876 H   0  0  0  0  0  0  0  0  0  0  0  0
   44.5145   -8.6590   34.7864 H   0  0  0  0  0  0  0  0  0  0  0  0
   43.1728  -10.5589   35.1317 H   0  0  0  0  0  0  0  0  0  0  0  0
   42.3923   -6.7206   37.7181 H   0  0  0  0  0  0  0  0  0  0  0  0
   41.0744   -8.1139   39.1567 H   0  0  0  0  0  0  0  0  0  0  0  0
   40.5319   -9.5824   38.6168 H   0  0  0  0  0  0  0  0  0  0  0  0
   39.5920   -7.1274   37.6885 H   0  0  0  0  0  0  0  0  0  0  0  0
   39.2432   -8.3741   37.0786 H   0  0  0  0  0  0  0  0  0  0  0  0
   38.4206   -8.9276   39.3995 H   0  0  0  0  0  0  0  0  0  0  0  0
   37.4708   -8.2826   38.1781 H   0  0  0  0  0  0  0  0  0  0  0  0
   39.5628   -7.1054   40.8598 H   0  0  0  0  0  0  0  0  0  0  0  0
   37.0520   -3.9592   41.8086 H   0  0  0  0  0  0  0  0  0  0  0  0
   35.6089   -4.6052   40.0383 H   0  0  0  0  0  0  0  0  0  0  0  0
   41.6203   -2.7038   43.9545 H   0  0  0  0  0  0  0  0  0  0  0  0
   43.8233   -4.2968   47.0523 H   0  0  0  0  0  0  0  0  0  0  0  0
   42.7657   -6.3942   46.7441 H   0  0  0  0  0  0  0  0  0  0  0  0
   46.0802    1.2084   45.1595 H   0  0  0  0  0  0  0  0  0  0  0  0
   45.4398    0.6891   43.7095 H   0  0  0  0  0  0  0  0  0  0  0  0
   47.0933   -1.2457   44.7218 H   0  0  0  0  0  0  0  0  0  0  0  0
   47.9089    0.1715   44.5883 H   0  0  0  0  0  0  0  0  0  0  0  0
   48.2101   -0.3652   42.4788 H   0  0  0  0  0  0  0  0  0  0  0  0
   46.6134    0.0381   42.2938 H   0  0  0  0  0  0  0  0  0  0  0  0
   47.0212   -2.5030   43.0465 H   0  0  0  0  0  0  0  0  0  0  0  0
   44.9076   -1.7823   42.6045 H   0  0  0  0  0  0  0  0  0  0  0  0
   45.3288   -3.0791   41.6740 H   0  0  0  0  0  0  0  0  0  0  0  0
   45.4106   -0.3483   40.7422 H   0  0  0  0  0  0  0  0  0  0  0  0
   44.2332   -1.4170   40.3570 H   0  0  0  0  0  0  0  0  0  0  0  0
   48.0271   -0.7732   40.1111 H   0  0  0  0  0  0  0  0  0  0  0  0
   48.5318   -2.1142   39.3235 H   0  0  0  0  0  0  0  0  0  0  0  0
   47.7196   -3.4735   41.1172 H   0  0  0  0  0  0  0  0  0  0  0  0
   48.8404   -2.3864   41.6555 H   0  0  0  0  0  0  0  0  0  0  0  0
   43.5456    1.9932   46.4816 H   0  0  0  0  0  0  0  0  0  0  0  0
   44.9720    1.5535   47.2044 H   0  0  0  0  0  0  0  0  0  0  0  0
   42.9847    2.1930   48.6341 H   0  0  0  0  0  0  0  0  0  0  0  0
   44.0281    0.9451   49.0668 H   0  0  0  0  0  0  0  0  0  0  0  0
   42.2167   -1.6855   48.3554 H   0  0  0  0  0  0  0  0  0  0  0  0
   41.2100   -0.8547   47.3110 H   0  0  0  0  0  0  0  0  0  0  0  0
   42.1933    1.8804   50.5485 H   0  0  0  0  0  0  0  0  0  0  0  0
   40.8128    1.5765   51.0998 H   0  0  0  0  0  0  0  0  0  0  0  0
  1  2  2  0  0  0  0
  1  6  1  0  0  0  0
  1 47  1  0  0  0  0
  2  3  1  0  0  0  0
  2 48  1  0  0  0  0
  3  4  2  0  0  0  0
  3 49  1  0  0  0  0
  4  5  1  0  0  0  0
  5  6  2  0  0  0  0
  5  7  1  0  0  0  0
  6 50  1  0  0  0  0
  7  8  1  0  0  0  0
  7 51  1  0  0  0  0
  7 52  1  0  0  0  0
  8  9  1  0  0  0  0
  8 53  1  0  0  0  0
  8 54  1  0  0  0  0
  9 10  1  0  0  0  0
  9 55  1  0  0  0  0
  9 56  1  0  0  0  0
 10 11  2  0  0  0  0
 10 15  1  0  0  0  0
 11 12  1  0  0  0  0
 11 57  1  0  0  0  0
 12 13  2  0  0  0  0
 12 17  1  0  0  0  0
 13 14  1  0  0  0  0
 13 58  1  0  0  0  0
 14 15  2  0  0  0  0
 14 59  1  0  0  0  0
 15 16  1  0  0  0  0
 17 18  3  0  0  0  0
 18 19  1  0  0  0  0
 19 20  2  0  0  0  0
 19 24  1  0  0  0  0
 20 21  1  0  0  0  0
 20 60  1  0  0  0  0
 21 22  2  0  0  0  0
 21 26  1  0  0  0  0
 22 23  1  0  0  0  0
 22 61  1  0  0  0  0
 23 24  2  0  0  0  0
 23 62  1  0  0  0  0
 24 25  1  0  0  0  0
 26 27  1  0  0  0  0
 26 30  2  0  0  0  0
 27 28  2  0  0  0  0
 27 43  1  0  0  0  0
 28 29  1  0  0  0  0
 28 40  1  0  0  0  0
 29 30  1  0  0  0  0
 29 31  1  0  0  0  0
 31 32  1  0  0  0  0
 31 63  1  0  0  0  0
 31 64  1  0  0  0  0
 32 33  1  0  0  0  0
 32 65  1  0  0  0  0
 32 66  1  0  0  0  0
 33 34  1  0  0  0  0
 33 67  1  0  0  0  0
 33 68  1  0  0  0  0
 34 35  1  0  0  0  0
 34 39  1  0  0  0  0
 34 69  1  0  0  0  0
 35 36  1  0  0  0  0
 35 70  1  0  0  0  0
 35 71  1  0  0  0  0
 36 37  1  0  0  0  0
 36 72  1  0  0  0  0
 36 73  1  0  0  0  0
 37 38  1  0  0  0  0
 38 39  1  0  0  0  0
 38 74  1  0  0  0  0
 38 75  1  0  0  0  0
 39 76  1  0  0  0  0
 39 77  1  0  0  0  0
 40 41  1  0  0  0  0
 40 78  1  0  0  0  0
 40 79  1  0  0  0  0
 41 42  1  0  0  0  0
 41 80  1  0  0  0  0
 41 81  1  0  0  0  0
 42 43  1  0  0  0  0
 42 44  1  0  0  0  0
 43 82  1  0  0  0  0
 43 83  1  0  0  0  0
 44 45  2  0  0  0  0
 44 46  1  0  0  0  0
 46 84  1  0  0  0  0
 46 85  1  0  0  0  0
M  CHG  2   8   1  34   1
M  END
