CatS_305:1_D
 OpenBabel12041818463D

 89 94  0  0  1  0  0  0  0  0999 V2000
   54.3134   -1.8122   35.4139 C   0  0  0  0  0  0  0  0  0  0  0  0
   53.0767   -1.5670   36.1698 N   0  0  0  0  0  0  0  0  0  0  0  0
   52.7647   -0.1372   36.3756 C   0  0  0  0  0  0  0  0  0  0  0  0
   52.3322   -2.6163   36.5896 C   0  0  0  0  0  0  0  0  0  0  0  0
   52.6254   -3.7845   36.3703 O   0  0  0  0  0  0  0  0  0  0  0  0
   51.0757   -2.2696   37.3710 C   0  0  2  0  0  0  0  0  0  0  0  0
   51.4019   -1.9938   38.8607 C   0  0  0  0  0  0  0  0  0  0  0  0
   50.1971   -2.0109   39.7968 C   0  0  0  0  0  0  0  0  0  0  0  0
   50.3241   -1.4999   41.0745 C   0  0  0  0  0  0  0  0  0  0  0  0
   49.2624   -1.5149   41.9461 C   0  0  0  0  0  0  0  0  0  0  0  0
   48.0457   -2.0511   41.5382 C   0  0  0  0  0  0  0  0  0  0  0  0
   47.9230   -2.5631   40.2518 C   0  0  0  0  0  0  0  0  0  0  0  0
   48.9866   -2.5462   39.3894 C   0  0  0  0  0  0  0  0  0  0  0  0
   48.7784   -3.1126   37.9919 C   0  0  0  0  0  0  0  0  0  0  0  0
   50.0935   -3.4103   37.3221 N   0  3  0  0  0  0  0  0  0  0  0  0
   46.8843   -2.1155   42.3878 C   0  0  0  0  0  0  0  0  0  0  0  0
   45.9028   -2.2750   43.0976 C   0  0  0  0  0  0  0  0  0  0  0  0
   44.7639   -2.6020   43.9181 C   0  0  0  0  0  0  0  0  0  0  0  0
   43.7804   -3.5183   43.5569 C   0  0  0  0  0  0  0  0  0  0  0  0
   42.7161   -3.7515   44.4076 C   0  0  0  0  0  0  0  0  0  0  0  0
   42.6353   -3.0540   45.6070 C   0  0  0  0  0  0  0  0  0  0  0  0
   43.6013   -2.1379   45.9619 C   0  0  0  0  0  0  0  0  0  0  0  0
   44.6680   -1.9200   45.1286 C   0  0  0  0  0  0  0  0  0  0  0  0
   45.9005   -0.7783   45.5826 Cl  0  0  0  0  0  0  0  0  0  0  0  0
   41.6519   -4.6831   44.0734 C   0  0  0  0  0  0  0  0  0  0  0  0
   41.3503   -5.9073   44.7115 C   0  0  0  0  0  0  0  0  0  0  0  0
   40.2749   -6.3448   44.0571 C   0  0  0  0  0  0  0  0  0  0  0  0
   39.9000   -5.5203   43.0480 N   0  0  0  0  0  0  0  0  0  0  0  0
   40.7841   -4.4941   43.0955 N   0  0  0  0  0  0  0  0  0  0  0  0
   38.9104   -5.7388   41.9850 C   0  0  0  0  0  0  0  0  0  0  0  0
   38.5943   -4.5805   41.0247 C   0  0  0  0  0  0  0  0  0  0  0  0
   38.1002   -5.1128   39.6592 C   0  0  0  0  0  0  0  0  0  0  0  0
   36.6204   -4.9066   39.4243 N   0  3  0  0  0  0  0  0  0  0  0  0
   35.7560   -5.5762   40.4632 C   0  0  0  0  0  0  0  0  0  0  0  0
   35.7838   -7.0994   40.2290 C   0  0  0  0  0  0  0  0  0  0  0  0
   35.3296   -7.4058   38.8967 O   0  0  0  0  0  0  0  0  0  0  0  0
   36.1568   -6.8033   37.8813 C   0  0  0  0  0  0  0  0  0  0  0  0
   36.1835   -5.2677   38.0273 C   0  0  0  0  0  0  0  0  0  0  0  0
   39.5844   -7.6436   44.4332 C   0  0  0  0  0  0  0  0  0  0  0  0
   40.0540   -8.1365   45.8200 C   0  0  0  0  0  0  0  0  0  0  0  0
   41.5263   -8.1071   45.9340 N   0  0  0  0  0  0  0  0  0  0  0  0
   41.9882   -6.6999   45.8460 C   0  0  0  0  0  0  0  0  0  0  0  0
   42.2392   -8.9900   47.1054 S   0  0  0  0  0  0  0  0  0  0  0  0
   43.6512   -8.8585   46.9489 O   0  0  0  0  0  0  0  0  0  0  0  0
   41.6664  -10.2924   47.0024 O   0  0  0  0  0  0  0  0  0  0  0  0
   41.7828   -8.3145   48.7258 C   0  0  0  0  0  0  0  0  0  0  0  0
   50.6852   -1.4507   36.9506 H   0  0  0  0  0  0  0  0  0  0  0  0
   54.4401   -2.7984   35.3081 H   0  0  0  0  0  0  0  0  0  0  0  0
   54.2496   -1.3822   34.5133 H   0  0  0  0  0  0  0  0  0  0  0  0
   55.0917   -1.4226   35.9062 H   0  0  0  0  0  0  0  0  0  0  0  0
   51.9049   -0.0611   36.8808 H   0  0  0  0  0  0  0  0  0  0  0  0
   53.5001    0.2978   36.8950 H   0  0  0  0  0  0  0  0  0  0  0  0
   52.6775    0.3192   35.4900 H   0  0  0  0  0  0  0  0  0  0  0  0
   51.8345   -1.0944   38.9239 H   0  0  0  0  0  0  0  0  0  0  0  0
   51.9977   -2.7393   39.1595 H   0  0  0  0  0  0  0  0  0  0  0  0
   51.1990   -1.1146   41.3679 H   0  0  0  0  0  0  0  0  0  0  0  0
   49.3638   -1.1425   42.8687 H   0  0  0  0  0  0  0  0  0  0  0  0
   47.0495   -2.9475   39.9531 H   0  0  0  0  0  0  0  0  0  0  0  0
   48.2724   -2.4484   37.4415 H   0  0  0  0  0  0  0  0  0  0  0  0
   48.2646   -3.9668   38.0706 H   0  0  0  0  0  0  0  0  0  0  0  0
   50.4519   -4.1626   37.6837 H   0  0  0  0  0  0  0  0  0  0  0  0
   49.9499   -3.6365   36.4523 H   0  0  0  0  0  0  0  0  0  0  0  0
   43.8434   -4.0056   42.6859 H   0  0  0  0  0  0  0  0  0  0  0  0
   41.8642   -3.2195   46.2218 H   0  0  0  0  0  0  0  0  0  0  0  0
   43.5249   -1.6346   46.8227 H   0  0  0  0  0  0  0  0  0  0  0  0
   38.0527   -6.0000   42.4281 H   0  0  0  0  0  0  0  0  0  0  0  0
   39.3312   -6.4314   41.3991 H   0  0  0  0  0  0  0  0  0  0  0  0
   39.4201   -4.0338   40.8861 H   0  0  0  0  0  0  0  0  0  0  0  0
   37.8706   -4.0206   41.4280 H   0  0  0  0  0  0  0  0  0  0  0  0
   38.2963   -6.0922   39.6110 H   0  0  0  0  0  0  0  0  0  0  0  0
   38.5816   -4.5940   38.9527 H   0  0  0  0  0  0  0  0  0  0  0  0
   36.4678   -4.0120   39.5002 H   0  0  0  0  0  0  0  0  0  0  0  0
   34.8174   -5.2395   40.3889 H   0  0  0  0  0  0  0  0  0  0  0  0
   36.1034   -5.3688   41.3778 H   0  0  0  0  0  0  0  0  0  0  0  0
   35.1885   -7.5485   40.8952 H   0  0  0  0  0  0  0  0  0  0  0  0
   36.7217   -7.4291   40.3367 H   0  0  0  0  0  0  0  0  0  0  0  0
   35.7960   -7.0421   36.9798 H   0  0  0  0  0  0  0  0  0  0  0  0
   37.0897   -7.1478   37.9857 H   0  0  0  0  0  0  0  0  0  0  0  0
   36.8229   -4.8778   37.3646 H   0  0  0  0  0  0  0  0  0  0  0  0
   35.2689   -4.9007   37.8576 H   0  0  0  0  0  0  0  0  0  0  0  0
   39.7962   -8.3393   43.7468 H   0  0  0  0  0  0  0  0  0  0  0  0
   38.5984   -7.4816   44.4703 H   0  0  0  0  0  0  0  0  0  0  0  0
   39.7333   -9.0734   45.9593 H   0  0  0  0  0  0  0  0  0  0  0  0
   39.6741   -7.5264   46.5153 H   0  0  0  0  0  0  0  0  0  0  0  0
   41.7757   -6.2422   46.7094 H   0  0  0  0  0  0  0  0  0  0  0  0
   42.9703   -6.7306   45.6604 H   0  0  0  0  0  0  0  0  0  0  0  0
   41.2266   -8.9871   49.2140 H   0  0  0  0  0  0  0  0  0  0  0  0
   42.6085   -8.1139   49.2529 H   0  0  0  0  0  0  0  0  0  0  0  0
   41.2614   -7.4699   48.6037 H   0  0  0  0  0  0  0  0  0  0  0  0
  1  2  1  0  0  0  0
  1 48  1  0  0  0  0
  1 49  1  0  0  0  0
  1 50  1  0  0  0  0
  2  3  1  0  0  0  0
  2  4  1  0  0  0  0
  3 51  1  0  0  0  0
  3 52  1  0  0  0  0
  3 53  1  0  0  0  0
  4  5  2  0  0  0  0
  4  6  1  0  0  0  0
  6  7  1  0  0  0  0
  6 15  1  0  0  0  0
  6 47  1  6  0  0  0
  7  8  1  0  0  0  0
  7 54  1  0  0  0  0
  7 55  1  0  0  0  0
  8  9  2  0  0  0  0
  8 13  1  0  0  0  0
  9 10  1  0  0  0  0
  9 56  1  0  0  0  0
 10 11  2  0  0  0  0
 10 57  1  0  0  0  0
 11 12  1  0  0  0  0
 11 16  1  0  0  0  0
 12 13  2  0  0  0  0
 12 58  1  0  0  0  0
 13 14  1  0  0  0  0
 14 15  1  0  0  0  0
 14 59  1  0  0  0  0
 14 60  1  0  0  0  0
 15 61  1  0  0  0  0
 15 62  1  0  0  0  0
 16 17  3  0  0  0  0
 17 18  1  0  0  0  0
 18 19  2  0  0  0  0
 18 23  1  0  0  0  0
 19 20  1  0  0  0  0
 19 63  1  0  0  0  0
 20 21  2  0  0  0  0
 20 25  1  0  0  0  0
 21 22  1  0  0  0  0
 21 64  1  0  0  0  0
 22 23  2  0  0  0  0
 22 65  1  0  0  0  0
 23 24  1  0  0  0  0
 25 26  1  0  0  0  0
 25 29  2  0  0  0  0
 26 27  2  0  0  0  0
 26 42  1  0  0  0  0
 27 28  1  0  0  0  0
 27 39  1  0  0  0  0
 28 29  1  0  0  0  0
 28 30  1  0  0  0  0
 30 31  1  0  0  0  0
 30 66  1  0  0  0  0
 30 67  1  0  0  0  0
 31 32  1  0  0  0  0
 31 68  1  0  0  0  0
 31 69  1  0  0  0  0
 32 33  1  0  0  0  0
 32 70  1  0  0  0  0
 32 71  1  0  0  0  0
 33 34  1  0  0  0  0
 33 38  1  0  0  0  0
 33 72  1  0  0  0  0
 34 35  1  0  0  0  0
 34 73  1  0  0  0  0
 34 74  1  0  0  0  0
 35 36  1  0  0  0  0
 35 75  1  0  0  0  0
 35 76  1  0  0  0  0
 36 37  1  0  0  0  0
 37 38  1  0  0  0  0
 37 77  1  0  0  0  0
 37 78  1  0  0  0  0
 38 79  1  0  0  0  0
 38 80  1  0  0  0  0
 39 40  1  0  0  0  0
 39 81  1  0  0  0  0
 39 82  1  0  0  0  0
 40 41  1  0  0  0  0
 40 83  1  0  0  0  0
 40 84  1  0  0  0  0
 41 42  1  0  0  0  0
 41 43  1  0  0  0  0
 42 85  1  0  0  0  0
 42 86  1  0  0  0  0
 43 44  2  0  0  0  0
 43 45  2  0  0  0  0
 43 46  1  0  0  0  0
 46 87  1  0  0  0  0
 46 88  1  0  0  0  0
 46 89  1  0  0  0  0
M  CHG  2  15   1  33   1
M  END
