CatS_196:1_D
 OpenBabel12041818463D

 75 79  0  0  0  0  0  0  0  0999 V2000
   43.4219   -9.4712   46.8327 C   0  0  0  0  0  0  0  0  0  0  0  0
   41.8588   -8.8475   47.5039 S   0  0  0  0  0  0  0  0  0  0  0  0
   40.9957   -9.9589   47.7394 O   0  0  0  0  0  0  0  0  0  0  0  0
   42.1715   -7.9960   48.6071 O   0  0  0  0  0  0  0  0  0  0  0  0
   41.1713   -7.9495   46.3357 N   0  0  0  0  0  0  0  0  0  0  0  0
   40.7187   -8.6648   45.1246 C   0  0  0  0  0  0  0  0  0  0  0  0
   39.6737   -7.8173   44.3689 C   0  0  0  0  0  0  0  0  0  0  0  0
   40.2350   -6.4424   44.0452 C   0  0  0  0  0  0  0  0  0  0  0  0
   41.2466   -5.9600   44.7716 C   0  0  0  0  0  0  0  0  0  0  0  0
   41.5048   -4.6997   44.1933 C   0  0  0  0  0  0  0  0  0  0  0  0
   40.6418   -4.5126   43.2167 N   0  0  0  0  0  0  0  0  0  0  0  0
   39.8164   -5.5818   43.0728 N   0  0  0  0  0  0  0  0  0  0  0  0
   38.7027   -5.6230   42.1015 C   0  0  0  0  0  0  0  0  0  0  0  0
   38.3559   -4.4727   41.1269 C   0  0  0  0  0  0  0  0  0  0  0  0
   38.1399   -5.0120   39.6923 C   0  0  0  0  0  0  0  0  0  0  0  0
   36.7187   -4.8837   39.1983 N   0  3  0  0  0  0  0  0  0  0  0  0
   35.6968   -5.1590   40.2726 C   0  0  0  0  0  0  0  0  0  0  0  0
   35.6050   -6.6772   40.5276 C   0  0  0  0  0  0  0  0  0  0  0  0
   35.3301   -7.3845   39.3022 O   0  0  0  0  0  0  0  0  0  0  0  0
   36.3555   -7.1850   38.3108 C   0  0  0  0  0  0  0  0  0  0  0  0
   36.4703   -5.6915   37.9489 C   0  0  0  0  0  0  0  0  0  0  0  0
   42.5362   -3.7403   44.5520 C   0  0  0  0  0  0  0  0  0  0  0  0
   42.3823   -3.0133   45.7250 C   0  0  0  0  0  0  0  0  0  0  0  0
   43.3342   -2.0987   46.1126 C   0  0  0  0  0  0  0  0  0  0  0  0
   44.4444   -1.8833   45.3344 C   0  0  0  0  0  0  0  0  0  0  0  0
   44.6172   -2.6012   44.1530 C   0  0  0  0  0  0  0  0  0  0  0  0
   43.6590   -3.5371   43.7688 C   0  0  0  0  0  0  0  0  0  0  0  0
   45.8166   -2.2987   43.4105 C   0  0  0  0  0  0  0  0  0  0  0  0
   46.8416   -2.1827   42.7556 C   0  0  0  0  0  0  0  0  0  0  0  0
   48.0470   -2.1891   41.9666 C   0  0  0  0  0  0  0  0  0  0  0  0
   49.3199   -2.0492   42.5088 C   0  0  0  0  0  0  0  0  0  0  0  0
   50.4126   -2.0625   41.6775 C   0  0  0  0  0  0  0  0  0  0  0  0
   50.2543   -2.2139   40.3138 C   0  0  0  0  0  0  0  0  0  0  0  0
   48.9941   -2.3538   39.7653 C   0  0  0  0  0  0  0  0  0  0  0  0
   47.9016   -2.3401   40.5916 C   0  0  0  0  0  0  0  0  0  0  0  0
   48.7124   -2.5279   38.2809 C   0  0  0  0  0  0  0  0  0  0  0  0
   49.9172   -2.3569   37.4006 N   0  3  0  0  0  0  0  0  0  0  0  0
   45.6450   -0.7088   45.8197 Cl  0  0  0  0  0  0  0  0  0  0  0  0
   41.8882   -6.7137   45.9323 C   0  0  0  0  0  0  0  0  0  0  0  0
   43.5313   -9.1360   45.8969 H   0  0  0  0  0  0  0  0  0  0  0  0
   44.1833   -9.1509   47.3963 H   0  0  0  0  0  0  0  0  0  0  0  0
   43.4139  -10.4712   46.8344 H   0  0  0  0  0  0  0  0  0  0  0  0
   40.3115   -9.5394   45.3878 H   0  0  0  0  0  0  0  0  0  0  0  0
   41.5037   -8.8249   44.5262 H   0  0  0  0  0  0  0  0  0  0  0  0
   38.8568   -7.7165   44.9368 H   0  0  0  0  0  0  0  0  0  0  0  0
   39.4410   -8.2794   43.5131 H   0  0  0  0  0  0  0  0  0  0  0  0
   37.8766   -5.7799   42.6427 H   0  0  0  0  0  0  0  0  0  0  0  0
   39.0372   -6.3149   41.4618 H   0  0  0  0  0  0  0  0  0  0  0  0
   39.1043   -3.8095   41.1208 H   0  0  0  0  0  0  0  0  0  0  0  0
   37.5098   -4.0372   41.4342 H   0  0  0  0  0  0  0  0  0  0  0  0
   38.3956   -5.9786   39.6759 H   0  0  0  0  0  0  0  0  0  0  0  0
   38.7083   -4.4569   39.0849 H   0  0  0  0  0  0  0  0  0  0  0  0
   36.5977   -4.0160   38.9498 H   0  0  0  0  0  0  0  0  0  0  0  0
   34.8047   -4.8140   39.9809 H   0  0  0  0  0  0  0  0  0  0  0  0
   35.9726   -4.6992   41.1167 H   0  0  0  0  0  0  0  0  0  0  0  0
   34.8730   -6.8574   41.1847 H   0  0  0  0  0  0  0  0  0  0  0  0
   36.4805   -6.9953   40.8912 H   0  0  0  0  0  0  0  0  0  0  0  0
   36.1285   -7.7090   37.4899 H   0  0  0  0  0  0  0  0  0  0  0  0
   37.2304   -7.4954   38.6826 H   0  0  0  0  0  0  0  0  0  0  0  0
   37.2277   -5.5590   37.3095 H   0  0  0  0  0  0  0  0  0  0  0  0
   35.6179   -5.3887   37.5227 H   0  0  0  0  0  0  0  0  0  0  0  0
   41.5719   -3.1558   46.2933 H   0  0  0  0  0  0  0  0  0  0  0  0
   43.2169   -1.5887   46.9648 H   0  0  0  0  0  0  0  0  0  0  0  0
   43.7827   -4.0621   42.9267 H   0  0  0  0  0  0  0  0  0  0  0  0
   49.4384   -1.9400   43.4957 H   0  0  0  0  0  0  0  0  0  0  0  0
   51.3300   -1.9617   42.0624 H   0  0  0  0  0  0  0  0  0  0  0  0
   51.0582   -2.2223   39.7189 H   0  0  0  0  0  0  0  0  0  0  0  0
   46.9866   -2.4401   40.2008 H   0  0  0  0  0  0  0  0  0  0  0  0
   48.0249   -1.8540   38.0098 H   0  0  0  0  0  0  0  0  0  0  0  0
   48.3992   -3.4693   38.1568 H   0  0  0  0  0  0  0  0  0  0  0  0
   50.6900   -2.5056   37.8580 H   0  0  0  0  0  0  0  0  0  0  0  0
   49.9091   -2.9348   36.6978 H   0  0  0  0  0  0  0  0  0  0  0  0
   49.9696   -1.5160   37.0571 H   0  0  0  0  0  0  0  0  0  0  0  0
   42.8199   -6.9635   45.6687 H   0  0  0  0  0  0  0  0  0  0  0  0
   41.8586   -6.0983   46.7200 H   0  0  0  0  0  0  0  0  0  0  0  0
  1  2  1  0  0  0  0
  1 40  1  0  0  0  0
  1 41  1  0  0  0  0
  1 42  1  0  0  0  0
  2  3  2  0  0  0  0
  2  4  2  0  0  0  0
  2  5  1  0  0  0  0
  5  6  1  0  0  0  0
  5 39  1  0  0  0  0
  6  7  1  0  0  0  0
  6 43  1  0  0  0  0
  6 44  1  0  0  0  0
  7  8  1  0  0  0  0
  7 45  1  0  0  0  0
  7 46  1  0  0  0  0
  8  9  2  0  0  0  0
  8 12  1  0  0  0  0
  9 10  1  0  0  0  0
  9 39  1  0  0  0  0
 10 11  2  0  0  0  0
 10 22  1  0  0  0  0
 11 12  1  0  0  0  0
 12 13  1  0  0  0  0
 13 14  1  0  0  0  0
 13 47  1  0  0  0  0
 13 48  1  0  0  0  0
 14 15  1  0  0  0  0
 14 49  1  0  0  0  0
 14 50  1  0  0  0  0
 15 16  1  0  0  0  0
 15 51  1  0  0  0  0
 15 52  1  0  0  0  0
 16 17  1  0  0  0  0
 16 21  1  0  0  0  0
 16 53  1  0  0  0  0
 17 18  1  0  0  0  0
 17 54  1  0  0  0  0
 17 55  1  0  0  0  0
 18 19  1  0  0  0  0
 18 56  1  0  0  0  0
 18 57  1  0  0  0  0
 19 20  1  0  0  0  0
 20 21  1  0  0  0  0
 20 58  1  0  0  0  0
 20 59  1  0  0  0  0
 21 60  1  0  0  0  0
 21 61  1  0  0  0  0
 22 23  2  0  0  0  0
 22 27  1  0  0  0  0
 23 24  1  0  0  0  0
 23 62  1  0  0  0  0
 24 25  2  0  0  0  0
 24 63  1  0  0  0  0
 25 26  1  0  0  0  0
 25 38  1  0  0  0  0
 26 27  2  0  0  0  0
 26 28  1  0  0  0  0
 27 64  1  0  0  0  0
 28 29  3  0  0  0  0
 29 30  1  0  0  0  0
 30 31  2  0  0  0  0
 30 35  1  0  0  0  0
 31 32  1  0  0  0  0
 31 65  1  0  0  0  0
 32 33  2  0  0  0  0
 32 66  1  0  0  0  0
 33 34  1  0  0  0  0
 33 67  1  0  0  0  0
 34 35  2  0  0  0  0
 34 36  1  0  0  0  0
 35 68  1  0  0  0  0
 36 37  1  0  0  0  0
 36 69  1  0  0  0  0
 36 70  1  0  0  0  0
 37 71  1  0  0  0  0
 37 72  1  0  0  0  0
 37 73  1  0  0  0  0
 39 74  1  0  0  0  0
 39 75  1  0  0  0  0
M  CHG  2  16   1  37   1
M  END
