CatS_166:1_D
 OpenBabel12041818463D

 86 90  0  0  1  0  0  0  0  0999 V2000
   42.1722   -8.4609   49.0113 C   0  0  0  0  0  0  0  0  0  0  0  0
   42.8057   -8.9456   47.3817 S   0  0  0  0  0  0  0  0  0  0  0  0
   42.5250  -10.3356   47.1969 O   0  0  0  0  0  0  0  0  0  0  0  0
   44.1940   -8.6150   47.3134 O   0  0  0  0  0  0  0  0  0  0  0  0
   42.0299   -8.1282   46.1983 N   0  0  0  0  0  0  0  0  0  0  0  0
   40.5808   -8.3597   45.9897 C   0  0  0  0  0  0  0  0  0  0  0  0
   40.0579   -7.7691   44.6539 C   0  0  0  0  0  0  0  0  0  0  0  0
   40.6111   -6.3768   44.3965 C   0  0  0  0  0  0  0  0  0  0  0  0
   41.6258   -5.8904   45.1123 C   0  0  0  0  0  0  0  0  0  0  0  0
   41.8126   -4.5935   44.5830 C   0  0  0  0  0  0  0  0  0  0  0  0
   40.9382   -4.4050   43.6185 N   0  0  0  0  0  0  0  0  0  0  0  0
   40.1640   -5.5025   43.4578 N   0  0  0  0  0  0  0  0  0  0  0  0
   39.0700   -5.6156   42.4843 C   0  0  0  0  0  0  0  0  0  0  0  0
   39.5511   -6.4133   41.2594 C   0  0  2  0  0  0  0  0  0  0  0  0
   38.6993   -6.0617   40.0245 C   0  0  0  0  0  0  0  0  0  0  0  0
   37.2173   -6.0471   40.3053 N   0  3  0  0  0  0  0  0  0  0  0  0
   36.5112   -5.0171   39.4582 C   0  0  0  0  0  0  0  0  0  0  0  0
   36.4169   -5.4709   37.9874 C   0  0  0  0  0  0  0  0  0  0  0  0
   35.7039   -6.8336   37.9043 C   0  0  0  0  0  0  0  0  0  0  0  0
   36.4697   -7.8752   38.7413 C   0  0  0  0  0  0  0  0  0  0  0  0
   36.5681   -7.4085   40.2083 C   0  0  0  0  0  0  0  0  0  0  0  0
   39.4895   -7.8206   41.5338 O   0  0  0  0  0  0  0  0  0  0  0  0
   42.7719   -3.5818   44.9796 C   0  0  0  0  0  0  0  0  0  0  0  0
   44.1236   -3.8668   45.0125 C   0  0  0  0  0  0  0  0  0  0  0  0
   45.0292   -2.8979   45.3714 C   0  0  0  0  0  0  0  0  0  0  0  0
   44.6217   -1.6274   45.7258 C   0  0  0  0  0  0  0  0  0  0  0  0
   43.2613   -1.3502   45.6942 C   0  0  0  0  0  0  0  0  0  0  0  0
   42.3486   -2.3103   45.3192 C   0  0  0  0  0  0  0  0  0  0  0  0
   42.6213    0.2711   46.1320 S   0  0  0  0  0  0  0  0  0  0  0  0
   40.9553   -0.0148   46.7967 C   0  0  0  0  0  0  0  0  0  0  0  0
   40.8850    0.1049   48.3354 C   0  0  0  0  0  0  0  0  0  0  0  0
   40.9027   -1.2048   49.0834 N   0  3  0  0  0  0  0  0  0  0  0  0
   40.2450   -1.1377   50.4413 C   0  0  0  0  0  0  0  0  0  0  0  0
   40.2080   -2.5262   51.1115 C   0  0  0  0  0  0  0  0  0  0  0  0
   41.6210   -3.1358   51.1806 C   0  0  0  0  0  0  0  0  0  0  0  0
   42.2649   -3.1952   49.7823 C   0  0  0  0  0  0  0  0  0  0  0  0
   42.2913   -1.7894   49.1497 C   0  0  0  0  0  0  0  0  0  0  0  0
   42.4178   -2.3802   52.0325 F   0  0  0  0  0  0  0  0  0  0  0  0
   41.5468   -4.4174   51.7127 F   0  0  0  0  0  0  0  0  0  0  0  0
   45.7131   -0.6294   46.1140 C   0  0  0  0  0  0  0  0  0  0  0  0
   45.4556   -0.0480   47.3513 F   0  0  0  0  0  0  0  0  0  0  0  0
   46.9853   -1.1919   46.1948 F   0  0  0  0  0  0  0  0  0  0  0  0
   45.7827    0.3985   45.1800 F   0  0  0  0  0  0  0  0  0  0  0  0
   42.2816   -6.6698   46.2439 C   0  0  0  0  0  0  0  0  0  0  0  0
   40.5011   -6.1685   41.0652 H   0  0  0  0  0  0  0  0  0  0  0  0
   41.4553   -7.7743   48.8909 H   0  0  0  0  0  0  0  0  0  0  0  0
   41.7970   -9.2610   49.4795 H   0  0  0  0  0  0  0  0  0  0  0  0
   42.9152   -8.0805   49.5618 H   0  0  0  0  0  0  0  0  0  0  0  0
   40.0777   -7.9397   46.7449 H   0  0  0  0  0  0  0  0  0  0  0  0
   40.4386   -9.3489   45.9535 H   0  0  0  0  0  0  0  0  0  0  0  0
   39.0596   -7.7221   44.6880 H   0  0  0  0  0  0  0  0  0  0  0  0
   40.3623   -8.3651   43.9108 H   0  0  0  0  0  0  0  0  0  0  0  0
   38.7816   -4.7020   42.1976 H   0  0  0  0  0  0  0  0  0  0  0  0
   38.2974   -6.0900   42.9061 H   0  0  0  0  0  0  0  0  0  0  0  0
   38.8825   -6.7356   39.3087 H   0  0  0  0  0  0  0  0  0  0  0  0
   38.9547   -5.1368   39.7427 H   0  0  0  0  0  0  0  0  0  0  0  0
   37.1217   -5.7764   41.1714 H   0  0  0  0  0  0  0  0  0  0  0  0
   37.0152   -4.1546   39.5040 H   0  0  0  0  0  0  0  0  0  0  0  0
   35.5830   -4.9005   39.8115 H   0  0  0  0  0  0  0  0  0  0  0  0
   37.3369   -5.5512   37.6039 H   0  0  0  0  0  0  0  0  0  0  0  0
   35.8946   -4.7951   37.4673 H   0  0  0  0  0  0  0  0  0  0  0  0
   35.6665   -7.1328   36.9508 H   0  0  0  0  0  0  0  0  0  0  0  0
   34.7748   -6.7424   38.2628 H   0  0  0  0  0  0  0  0  0  0  0  0
   37.3895   -7.9914   38.3663 H   0  0  0  0  0  0  0  0  0  0  0  0
   35.9791   -8.7459   38.7084 H   0  0  0  0  0  0  0  0  0  0  0  0
   35.6496   -7.3624   40.6010 H   0  0  0  0  0  0  0  0  0  0  0  0
   37.1307   -8.0645   40.7113 H   0  0  0  0  0  0  0  0  0  0  0  0
   40.4015   -8.1943   41.7351 H   0  0  0  0  0  0  0  0  0  0  0  0
   44.4445   -4.7834   44.7737 H   0  0  0  0  0  0  0  0  0  0  0  0
   46.0047   -3.1177   45.3759 H   0  0  0  0  0  0  0  0  0  0  0  0
   41.3743   -2.0868   45.2922 H   0  0  0  0  0  0  0  0  0  0  0  0
   40.6596   -0.9329   46.5331 H   0  0  0  0  0  0  0  0  0  0  0  0
   40.3588    0.6927   46.4175 H   0  0  0  0  0  0  0  0  0  0  0  0
   40.0413    0.5872   48.5712 H   0  0  0  0  0  0  0  0  0  0  0  0
   41.7126    0.5926   48.6134 H   0  0  0  0  0  0  0  0  0  0  0  0
   40.4074   -1.7820   48.5812 H   0  0  0  0  0  0  0  0  0  0  0  0
   39.3105   -0.7982   50.3364 H   0  0  0  0  0  0  0  0  0  0  0  0
   40.7780   -0.5215   51.0212 H   0  0  0  0  0  0  0  0  0  0  0  0
   39.6122   -3.1314   50.5834 H   0  0  0  0  0  0  0  0  0  0  0  0
   39.8575   -2.4242   52.0425 H   0  0  0  0  0  0  0  0  0  0  0  0
   41.7368   -3.8129   49.1995 H   0  0  0  0  0  0  0  0  0  0  0  0
   43.2029   -3.5311   49.8685 H   0  0  0  0  0  0  0  0  0  0  0  0
   42.8745   -1.1909   49.6990 H   0  0  0  0  0  0  0  0  0  0  0  0
   42.6515   -1.8647   48.2197 H   0  0  0  0  0  0  0  0  0  0  0  0
   43.2692   -6.5186   46.2015 H   0  0  0  0  0  0  0  0  0  0  0  0
   41.8781   -6.3341   47.0951 H   0  0  0  0  0  0  0  0  0  0  0  0
  1  2  1  0  0  0  0
  1 46  1  0  0  0  0
  1 47  1  0  0  0  0
  1 48  1  0  0  0  0
  2  3  2  0  0  0  0
  2  4  2  0  0  0  0
  2  5  1  0  0  0  0
  5  6  1  0  0  0  0
  5 44  1  0  0  0  0
  6  7  1  0  0  0  0
  6 49  1  0  0  0  0
  6 50  1  0  0  0  0
  7  8  1  0  0  0  0
  7 51  1  0  0  0  0
  7 52  1  0  0  0  0
  8  9  2  0  0  0  0
  8 12  1  0  0  0  0
  9 10  1  0  0  0  0
  9 44  1  0  0  0  0
 10 11  2  0  0  0  0
 10 23  1  0  0  0  0
 11 12  1  0  0  0  0
 12 13  1  0  0  0  0
 13 14  1  0  0  0  0
 13 53  1  0  0  0  0
 13 54  1  0  0  0  0
 14 15  1  0  0  0  0
 14 22  1  0  0  0  0
 14 45  1  6  0  0  0
 15 16  1  0  0  0  0
 15 55  1  0  0  0  0
 15 56  1  0  0  0  0
 16 17  1  0  0  0  0
 16 21  1  0  0  0  0
 16 57  1  0  0  0  0
 17 18  1  0  0  0  0
 17 58  1  0  0  0  0
 17 59  1  0  0  0  0
 18 19  1  0  0  0  0
 18 60  1  0  0  0  0
 18 61  1  0  0  0  0
 19 20  1  0  0  0  0
 19 62  1  0  0  0  0
 19 63  1  0  0  0  0
 20 21  1  0  0  0  0
 20 64  1  0  0  0  0
 20 65  1  0  0  0  0
 21 66  1  0  0  0  0
 21 67  1  0  0  0  0
 22 68  1  0  0  0  0
 23 24  2  0  0  0  0
 23 28  1  0  0  0  0
 24 25  1  0  0  0  0
 24 69  1  0  0  0  0
 25 26  2  0  0  0  0
 25 70  1  0  0  0  0
 26 27  1  0  0  0  0
 26 40  1  0  0  0  0
 27 28  2  0  0  0  0
 27 29  1  0  0  0  0
 28 71  1  0  0  0  0
 29 30  1  0  0  0  0
 30 31  1  0  0  0  0
 30 72  1  0  0  0  0
 30 73  1  0  0  0  0
 31 32  1  0  0  0  0
 31 74  1  0  0  0  0
 31 75  1  0  0  0  0
 32 33  1  0  0  0  0
 32 37  1  0  0  0  0
 32 76  1  0  0  0  0
 33 34  1  0  0  0  0
 33 77  1  0  0  0  0
 33 78  1  0  0  0  0
 34 35  1  0  0  0  0
 34 79  1  0  0  0  0
 34 80  1  0  0  0  0
 35 36  1  0  0  0  0
 35 38  1  0  0  0  0
 35 39  1  0  0  0  0
 36 37  1  0  0  0  0
 36 81  1  0  0  0  0
 36 82  1  0  0  0  0
 37 83  1  0  0  0  0
 37 84  1  0  0  0  0
 40 41  1  0  0  0  0
 40 42  1  0  0  0  0
 40 43  1  0  0  0  0
 44 85  1  0  0  0  0
 44 86  1  0  0  0  0
M  CHG  2  16   1  32   1
M  END
