CatS_266:1_D
 OpenBabel12041818463D

 85 90  0  0  0  0  0  0  0  0999 V2000
   44.4974   -8.5785   46.8536 C   0  0  0  0  0  0  0  0  0  0  0  0
   43.0872   -7.8929   47.7660 S   0  0  0  0  0  0  0  0  0  0  0  0
   43.5657   -6.8584   48.6239 O   0  0  0  0  0  0  0  0  0  0  0  0
   42.3901   -8.9772   48.3774 O   0  0  0  0  0  0  0  0  0  0  0  0
   42.0455   -7.2186   46.7115 N   0  0  0  0  0  0  0  0  0  0  0  0
   41.3478   -8.0941   45.7435 C   0  0  0  0  0  0  0  0  0  0  0  0
   40.1617   -7.3705   45.0643 C   0  0  0  0  0  0  0  0  0  0  0  0
   40.6138   -6.0381   44.4996 C   0  0  0  0  0  0  0  0  0  0  0  0
   41.7272   -5.4383   44.9213 C   0  0  0  0  0  0  0  0  0  0  0  0
   41.8020   -4.2714   44.1246 C   0  0  0  0  0  0  0  0  0  0  0  0
   40.7457   -4.2423   43.3347 N   0  0  0  0  0  0  0  0  0  0  0  0
   39.9674   -5.3321   43.5413 N   0  0  0  0  0  0  0  0  0  0  0  0
   38.7421   -5.6581   42.7982 C   0  0  0  0  0  0  0  0  0  0  0  0
   38.3299   -4.6664   41.6967 C   0  0  0  0  0  0  0  0  0  0  0  0
   36.9101   -4.9867   41.1885 C   0  0  0  0  0  0  0  0  0  0  0  0
   36.9146   -5.7638   39.8967 N   0  3  0  0  0  0  0  0  0  0  0  0
   35.8904   -5.2638   38.9063 C   0  0  0  0  0  0  0  0  0  0  0  0
   35.9449   -6.1068   37.6177 C   0  0  0  0  0  0  0  0  0  0  0  0
   35.7814   -7.5042   37.9231 O   0  0  0  0  0  0  0  0  0  0  0  0
   36.8190   -7.9999   38.7903 C   0  0  0  0  0  0  0  0  0  0  0  0
   36.7995   -7.2482   40.1351 C   0  0  0  0  0  0  0  0  0  0  0  0
   42.8377   -3.2493   44.1024 C   0  0  0  0  0  0  0  0  0  0  0  0
   42.8163   -2.2477   45.0659 C   0  0  0  0  0  0  0  0  0  0  0  0
   43.7808   -1.2656   45.0874 C   0  0  0  0  0  0  0  0  0  0  0  0
   44.7855   -1.2697   44.1540 C   0  0  0  0  0  0  0  0  0  0  0  0
   44.8294   -2.2656   43.1808 C   0  0  0  0  0  0  0  0  0  0  0  0
   43.8453   -3.2505   43.1555 C   0  0  0  0  0  0  0  0  0  0  0  0
   45.9407   -2.2076   42.2641 C   0  0  0  0  0  0  0  0  0  0  0  0
   46.8069   -2.2397   41.4039 C   0  0  0  0  0  0  0  0  0  0  0  0
   47.7293   -2.3576   40.3032 C   0  0  0  0  0  0  0  0  0  0  0  0
   48.9916   -2.8576   40.5998 C   0  0  0  0  0  0  0  0  0  0  0  0
   49.9016   -3.0696   39.6001 C   0  0  0  0  0  0  0  0  0  0  0  0
   49.5821   -2.7883   38.2886 C   0  0  0  0  0  0  0  0  0  0  0  0
   48.3368   -2.2630   37.9904 C   0  0  0  0  0  0  0  0  0  0  0  0
   47.4121   -2.0444   38.9846 C   0  0  0  0  0  0  0  0  0  0  0  0
   50.6505   -3.1465   37.2634 C   0  0  0  0  0  0  0  0  0  0  0  0
   51.1284   -2.0425   36.3562 N   0  3  0  0  0  0  0  0  0  0  0  0
   52.4970   -1.4948   36.6840 C   0  0  0  0  0  0  0  0  0  0  0  0
   53.3634   -1.1605   35.4784 C   0  0  0  0  0  0  0  0  0  0  0  0
   54.4225   -1.8302   35.0333 C   0  0  0  0  0  0  0  0  0  0  0  0
   54.8747   -1.1415   33.8835 C   0  0  0  0  0  0  0  0  0  0  0  0
   54.0419   -0.1202   33.7360 C   0  0  0  0  0  0  0  0  0  0  0  0
   53.1127   -0.1086   34.6941 O   0  0  0  0  0  0  0  0  0  0  0  0
   46.0133   -0.0311   44.1973 Cl  0  0  0  0  0  0  0  0  0  0  0  0
   42.6178   -6.0509   45.9959 C   0  0  0  0  0  0  0  0  0  0  0  0
   44.3654   -8.4112   45.8766 H   0  0  0  0  0  0  0  0  0  0  0  0
   45.3428   -8.1403   47.1590 H   0  0  0  0  0  0  0  0  0  0  0  0
   44.5613   -9.5621   47.0222 H   0  0  0  0  0  0  0  0  0  0  0  0
   41.0052   -8.9015   46.2238 H   0  0  0  0  0  0  0  0  0  0  0  0
   42.0011   -8.3522   45.0318 H   0  0  0  0  0  0  0  0  0  0  0  0
   39.4372   -7.2184   45.7364 H   0  0  0  0  0  0  0  0  0  0  0  0
   39.8176   -7.9396   44.3174 H   0  0  0  0  0  0  0  0  0  0  0  0
   37.9913   -5.7161   43.4561 H   0  0  0  0  0  0  0  0  0  0  0  0
   38.9386   -6.5159   42.3233 H   0  0  0  0  0  0  0  0  0  0  0  0
   38.9766   -4.7287   40.9365 H   0  0  0  0  0  0  0  0  0  0  0  0
   38.3363   -3.7408   42.0751 H   0  0  0  0  0  0  0  0  0  0  0  0
   36.4187   -4.1275   41.0458 H   0  0  0  0  0  0  0  0  0  0  0  0
   36.4639   -5.5555   41.8794 H   0  0  0  0  0  0  0  0  0  0  0  0
   37.7335   -5.6323   39.5180 H   0  0  0  0  0  0  0  0  0  0  0  0
   36.0800   -4.3068   38.6870 H   0  0  0  0  0  0  0  0  0  0  0  0
   34.9789   -5.3433   39.3099 H   0  0  0  0  0  0  0  0  0  0  0  0
   36.8269   -5.9665   37.1678 H   0  0  0  0  0  0  0  0  0  0  0  0
   35.2028   -5.8201   37.0118 H   0  0  0  0  0  0  0  0  0  0  0  0
   37.7078   -7.8707   38.3504 H   0  0  0  0  0  0  0  0  0  0  0  0
   36.6616   -8.9726   38.9613 H   0  0  0  0  0  0  0  0  0  0  0  0
   35.9436   -7.4430   40.6141 H   0  0  0  0  0  0  0  0  0  0  0  0
   37.5727   -7.5525   40.6915 H   0  0  0  0  0  0  0  0  0  0  0  0
   42.0900   -2.2403   45.7531 H   0  0  0  0  0  0  0  0  0  0  0  0
   43.7489   -0.5489   45.7841 H   0  0  0  0  0  0  0  0  0  0  0  0
   43.8672   -3.9599   42.4510 H   0  0  0  0  0  0  0  0  0  0  0  0
   49.2357   -3.0633   41.5474 H   0  0  0  0  0  0  0  0  0  0  0  0
   50.8067   -3.4319   39.8228 H   0  0  0  0  0  0  0  0  0  0  0  0
   48.1072   -2.0403   37.0430 H   0  0  0  0  0  0  0  0  0  0  0  0
   46.5156   -1.6620   38.7611 H   0  0  0  0  0  0  0  0  0  0  0  0
   50.2836   -3.8762   36.6864 H   0  0  0  0  0  0  0  0  0  0  0  0
   51.4525   -3.4008   37.8038 H   0  0  0  0  0  0  0  0  0  0  0  0
   51.1507   -2.3571   35.5025 H   0  0  0  0  0  0  0  0  0  0  0  0
   50.5181   -1.3674   36.3288 H   0  0  0  0  0  0  0  0  0  0  0  0
   52.9797   -2.1740   37.2370 H   0  0  0  0  0  0  0  0  0  0  0  0
   52.3437   -0.6308   37.1635 H   0  0  0  0  0  0  0  0  0  0  0  0
   54.8202   -2.6565   35.4321 H   0  0  0  0  0  0  0  0  0  0  0  0
   55.6562   -1.3751   33.3049 H   0  0  0  0  0  0  0  0  0  0  0  0
   54.1024    0.5551   33.0010 H   0  0  0  0  0  0  0  0  0  0  0  0
   43.4714   -6.3411   45.5632 H   0  0  0  0  0  0  0  0  0  0  0  0
   42.7406   -5.3389   46.6872 H   0  0  0  0  0  0  0  0  0  0  0  0
  1  2  1  0  0  0  0
  1 46  1  0  0  0  0
  1 47  1  0  0  0  0
  1 48  1  0  0  0  0
  2  3  2  0  0  0  0
  2  4  2  0  0  0  0
  2  5  1  0  0  0  0
  5  6  1  0  0  0  0
  5 45  1  0  0  0  0
  6  7  1  0  0  0  0
  6 49  1  0  0  0  0
  6 50  1  0  0  0  0
  7  8  1  0  0  0  0
  7 51  1  0  0  0  0
  7 52  1  0  0  0  0
  8  9  2  0  0  0  0
  8 12  1  0  0  0  0
  9 10  1  0  0  0  0
  9 45  1  0  0  0  0
 10 11  2  0  0  0  0
 10 22  1  0  0  0  0
 11 12  1  0  0  0  0
 12 13  1  0  0  0  0
 13 14  1  0  0  0  0
 13 53  1  0  0  0  0
 13 54  1  0  0  0  0
 14 15  1  0  0  0  0
 14 55  1  0  0  0  0
 14 56  1  0  0  0  0
 15 16  1  0  0  0  0
 15 57  1  0  0  0  0
 15 58  1  0  0  0  0
 16 17  1  0  0  0  0
 16 21  1  0  0  0  0
 16 59  1  0  0  0  0
 17 18  1  0  0  0  0
 17 60  1  0  0  0  0
 17 61  1  0  0  0  0
 18 19  1  0  0  0  0
 18 62  1  0  0  0  0
 18 63  1  0  0  0  0
 19 20  1  0  0  0  0
 20 21  1  0  0  0  0
 20 64  1  0  0  0  0
 20 65  1  0  0  0  0
 21 66  1  0  0  0  0
 21 67  1  0  0  0  0
 22 23  2  0  0  0  0
 22 27  1  0  0  0  0
 23 24  1  0  0  0  0
 23 68  1  0  0  0  0
 24 25  2  0  0  0  0
 24 69  1  0  0  0  0
 25 26  1  0  0  0  0
 25 44  1  0  0  0  0
 26 27  2  0  0  0  0
 26 28  1  0  0  0  0
 27 70  1  0  0  0  0
 28 29  3  0  0  0  0
 29 30  1  0  0  0  0
 30 31  2  0  0  0  0
 30 35  1  0  0  0  0
 31 32  1  0  0  0  0
 31 71  1  0  0  0  0
 32 33  2  0  0  0  0
 32 72  1  0  0  0  0
 33 34  1  0  0  0  0
 33 36  1  0  0  0  0
 34 35  2  0  0  0  0
 34 73  1  0  0  0  0
 35 74  1  0  0  0  0
 36 37  1  0  0  0  0
 36 75  1  0  0  0  0
 36 76  1  0  0  0  0
 37 38  1  0  0  0  0
 37 77  1  0  0  0  0
 37 78  1  0  0  0  0
 38 39  1  0  0  0  0
 38 79  1  0  0  0  0
 38 80  1  0  0  0  0
 39 40  2  0  0  0  0
 39 43  1  0  0  0  0
 40 41  1  0  0  0  0
 40 81  1  0  0  0  0
 41 42  2  0  0  0  0
 41 82  1  0  0  0  0
 42 43  1  0  0  0  0
 42 83  1  0  0  0  0
 45 84  1  0  0  0  0
 45 85  1  0  0  0  0
M  CHG  2  16   1  37   1
M  END
