CatS_60:1_D
 OpenBabel12041818463D

 92 97  0  0  0  0  0  0  0  0999 V2000
   46.2550   -8.0219   47.8182 C   0  0  0  0  0  0  0  0  0  0  0  0
   44.7944   -7.4431   48.7280 S   0  0  0  0  0  0  0  0  0  0  0  0
   44.3815   -8.4878   49.6063 O   0  0  0  0  0  0  0  0  0  0  0  0
   45.0878   -6.1798   49.3192 O   0  0  0  0  0  0  0  0  0  0  0  0
   43.5906   -7.2103   47.6623 N   0  0  0  0  0  0  0  0  0  0  0  0
   43.0432   -8.3886   46.9560 C   0  0  0  0  0  0  0  0  0  0  0  0
   41.6340   -8.0723   46.4109 C   0  0  0  0  0  0  0  0  0  0  0  0
   41.6306   -6.7677   45.6305 C   0  0  0  0  0  0  0  0  0  0  0  0
   42.6289   -5.8878   45.7553 C   0  0  0  0  0  0  0  0  0  0  0  0
   42.2723   -4.8448   44.8694 C   0  0  0  0  0  0  0  0  0  0  0  0
   41.1180   -5.1570   44.3180 N   0  0  0  0  0  0  0  0  0  0  0  0
   40.6715   -6.3574   44.7593 N   0  0  0  0  0  0  0  0  0  0  0  0
   39.4356   -7.0075   44.2892 C   0  0  0  0  0  0  0  0  0  0  0  0
   39.5537   -7.6704   42.9018 C   0  0  0  0  0  0  0  0  0  0  0  0
   39.6914   -6.6176   41.7808 C   0  0  0  0  0  0  0  0  0  0  0  0
   38.4534   -6.4731   40.9250 N   0  3  2  0  0  0  0  0  0  0  0  0
   38.1738   -7.7143   40.1071 C   0  0  0  0  0  0  0  0  0  0  0  0
   36.9126   -7.5605   39.2329 C   0  0  0  0  0  0  0  0  0  0  0  0
   37.0695   -6.3247   38.3240 C   0  0  2  0  0  0  0  0  0  0  0  0
   37.2104   -5.0812   39.2223 C   0  0  0  0  0  0  0  0  0  0  0  0
   38.4812   -5.2155   40.0874 C   0  0  0  0  0  0  0  0  0  0  0  0
   35.9351   -6.1540   37.3365 C   0  0  0  0  0  0  0  0  0  0  0  0
   35.6740   -7.1395   36.5602 O   0  5  0  0  0  0  0  0  0  0  0  0
   35.3294   -5.0247   37.3446 O   0  0  0  0  0  0  0  0  0  0  0  0
   42.9926   -3.6236   44.5372 C   0  0  0  0  0  0  0  0  0  0  0  0
   42.6251   -2.4562   45.1914 C   0  0  0  0  0  0  0  0  0  0  0  0
   43.2623   -1.2649   44.9299 C   0  0  0  0  0  0  0  0  0  0  0  0
   44.2818   -1.2150   44.0125 C   0  0  0  0  0  0  0  0  0  0  0  0
   44.6703   -2.3722   43.3415 C   0  0  0  0  0  0  0  0  0  0  0  0
   44.0170   -3.5731   43.6085 C   0  0  0  0  0  0  0  0  0  0  0  0
   45.7490   -2.2783   42.3889 C   0  0  0  0  0  0  0  0  0  0  0  0
   46.6521   -2.2619   41.5667 C   0  0  0  0  0  0  0  0  0  0  0  0
   47.7010   -2.3105   40.5797 C   0  0  0  0  0  0  0  0  0  0  0  0
   47.5026   -1.9140   39.2610 C   0  0  0  0  0  0  0  0  0  0  0  0
   48.5424   -1.9723   38.3657 C   0  0  0  0  0  0  0  0  0  0  0  0
   49.7868   -2.4305   38.7554 C   0  0  0  0  0  0  0  0  0  0  0  0
   49.9764   -2.8376   40.0609 C   0  0  0  0  0  0  0  0  0  0  0  0
   48.9530   -2.7715   40.9695 C   0  0  0  0  0  0  0  0  0  0  0  0
   50.9206   -2.5121   37.7382 C   0  0  0  0  0  0  0  0  0  0  0  0
   50.6820   -3.4144   36.5482 N   0  3  0  0  0  0  0  0  0  0  0  0
   51.5308   -4.6640   36.4850 C   0  0  0  0  0  0  0  0  0  0  0  0
   50.8153   -5.9870   36.7344 C   0  0  0  0  0  0  0  0  0  0  0  0
   50.6913   -6.5513   37.9872 C   0  0  0  0  0  0  0  0  0  0  0  0
   50.0723   -7.7706   38.1450 C   0  0  0  0  0  0  0  0  0  0  0  0
   49.5773   -8.4409   37.0488 C   0  0  0  0  0  0  0  0  0  0  0  0
   49.6940   -7.8819   35.7966 C   0  0  0  0  0  0  0  0  0  0  0  0
   50.3101   -6.6614   35.6438 C   0  0  0  0  0  0  0  0  0  0  0  0
   48.8172   -9.9937   37.2415 Cl  0  0  0  0  0  0  0  0  0  0  0  0
   45.0778    0.2990   43.6881 Cl  0  0  0  0  0  0  0  0  0  0  0  0
   43.8192   -6.1254   46.6791 C   0  0  0  0  0  0  0  0  0  0  0  0
   46.0299   -8.0824   46.8457 H   0  0  0  0  0  0  0  0  0  0  0  0
   47.0109   -7.3806   47.9497 H   0  0  0  0  0  0  0  0  0  0  0  0
   46.5286   -8.9216   48.1581 H   0  0  0  0  0  0  0  0  0  0  0  0
   42.9901   -9.1606   47.5893 H   0  0  0  0  0  0  0  0  0  0  0  0
   43.6444   -8.6203   46.1912 H   0  0  0  0  0  0  0  0  0  0  0  0
   40.9945   -7.9999   47.1763 H   0  0  0  0  0  0  0  0  0  0  0  0
   41.3582   -8.8105   45.7952 H   0  0  0  0  0  0  0  0  0  0  0  0
   38.7133   -6.3171   44.2484 H   0  0  0  0  0  0  0  0  0  0  0  0
   39.2339   -7.7407   44.9385 H   0  0  0  0  0  0  0  0  0  0  0  0
   38.7372   -8.2228   42.7337 H   0  0  0  0  0  0  0  0  0  0  0  0
   40.3745   -8.2416   42.8963 H   0  0  0  0  0  0  0  0  0  0  0  0
   40.4560   -6.8799   41.1920 H   0  0  0  0  0  0  0  0  0  0  0  0
   39.8406   -5.7350   42.2266 H   0  0  0  0  0  0  0  0  0  0  0  0
   37.7455   -6.3703   41.4896 H   0  0  0  0  0  0  0  0  0  0  0  0
   38.0472   -8.4889   40.7268 H   0  0  0  0  0  0  0  0  0  0  0  0
   38.9528   -7.8638   39.4982 H   0  0  0  0  0  0  0  0  0  0  0  0
   36.1101   -7.4477   39.8187 H   0  0  0  0  0  0  0  0  0  0  0  0
   36.7954   -8.3773   38.6680 H   0  0  0  0  0  0  0  0  0  0  0  0
   37.8878   -6.4525   37.7637 H   0  0  0  0  0  0  0  0  0  0  0  0
   36.4078   -5.0023   39.8136 H   0  0  0  0  0  0  0  0  0  0  0  0
   37.2812   -4.2632   38.6514 H   0  0  0  0  0  0  0  0  0  0  0  0
   39.2827   -5.2395   39.4898 H   0  0  0  0  0  0  0  0  0  0  0  0
   38.5226   -4.4297   40.7044 H   0  0  0  0  0  0  0  0  0  0  0  0
   41.8853   -2.4811   45.8637 H   0  0  0  0  0  0  0  0  0  0  0  0
   42.9817   -0.4335   45.4095 H   0  0  0  0  0  0  0  0  0  0  0  0
   44.2904   -4.4050   43.1254 H   0  0  0  0  0  0  0  0  0  0  0  0
   46.6047   -1.5872   38.9658 H   0  0  0  0  0  0  0  0  0  0  0  0
   48.3974   -1.6797   37.4205 H   0  0  0  0  0  0  0  0  0  0  0  0
   50.8699   -3.1844   40.3463 H   0  0  0  0  0  0  0  0  0  0  0  0
   49.1073   -3.0557   41.9157 H   0  0  0  0  0  0  0  0  0  0  0  0
   51.7370   -2.8392   38.2141 H   0  0  0  0  0  0  0  0  0  0  0  0
   51.0104   -1.5902   37.3613 H   0  0  0  0  0  0  0  0  0  0  0  0
   49.8051   -3.6560   36.5670 H   0  0  0  0  0  0  0  0  0  0  0  0
   50.7581   -2.9388   35.7751 H   0  0  0  0  0  0  0  0  0  0  0  0
   52.2560   -4.5748   37.1678 H   0  0  0  0  0  0  0  0  0  0  0  0
   51.8557   -4.7149   35.5406 H   0  0  0  0  0  0  0  0  0  0  0  0
   51.0536   -6.0713   38.7860 H   0  0  0  0  0  0  0  0  0  0  0  0
   49.9820   -8.1702   39.0572 H   0  0  0  0  0  0  0  0  0  0  0  0
   49.3311   -8.3626   34.9983 H   0  0  0  0  0  0  0  0  0  0  0  0
   50.3923   -6.2593   34.7319 H   0  0  0  0  0  0  0  0  0  0  0  0
   44.6146   -6.3629   46.1214 H   0  0  0  0  0  0  0  0  0  0  0  0
   43.9635   -5.2822   47.1969 H   0  0  0  0  0  0  0  0  0  0  0  0
  1  2  1  0  0  0  0
  1 51  1  0  0  0  0
  1 52  1  0  0  0  0
  1 53  1  0  0  0  0
  2  3  2  0  0  0  0
  2  4  2  0  0  0  0
  2  5  1  0  0  0  0
  5  6  1  0  0  0  0
  5 50  1  0  0  0  0
  6  7  1  0  0  0  0
  6 54  1  0  0  0  0
  6 55  1  0  0  0  0
  7  8  1  0  0  0  0
  7 56  1  0  0  0  0
  7 57  1  0  0  0  0
  8  9  2  0  0  0  0
  8 12  1  0  0  0  0
  9 10  1  0  0  0  0
  9 50  1  0  0  0  0
 10 11  2  0  0  0  0
 10 25  1  0  0  0  0
 11 12  1  0  0  0  0
 12 13  1  0  0  0  0
 13 14  1  0  0  0  0
 13 58  1  0  0  0  0
 13 59  1  0  0  0  0
 14 15  1  0  0  0  0
 14 60  1  0  0  0  0
 14 61  1  0  0  0  0
 15 16  1  0  0  0  0
 15 62  1  0  0  0  0
 15 63  1  0  0  0  0
 16 17  1  0  0  0  0
 16 21  1  0  0  0  0
 16 64  1  1  0  0  0
 17 18  1  0  0  0  0
 17 65  1  0  0  0  0
 17 66  1  0  0  0  0
 18 19  1  0  0  0  0
 18 67  1  0  0  0  0
 18 68  1  0  0  0  0
 19 20  1  0  0  0  0
 19 22  1  0  0  0  0
 19 69  1  6  0  0  0
 20 21  1  0  0  0  0
 20 70  1  0  0  0  0
 20 71  1  0  0  0  0
 21 72  1  0  0  0  0
 21 73  1  0  0  0  0
 22 23  1  0  0  0  0
 22 24  2  0  0  0  0
 25 26  2  0  0  0  0
 25 30  1  0  0  0  0
 26 27  1  0  0  0  0
 26 74  1  0  0  0  0
 27 28  2  0  0  0  0
 27 75  1  0  0  0  0
 28 29  1  0  0  0  0
 28 49  1  0  0  0  0
 29 30  2  0  0  0  0
 29 31  1  0  0  0  0
 30 76  1  0  0  0  0
 31 32  3  0  0  0  0
 32 33  1  0  0  0  0
 33 34  2  0  0  0  0
 33 38  1  0  0  0  0
 34 35  1  0  0  0  0
 34 77  1  0  0  0  0
 35 36  2  0  0  0  0
 35 78  1  0  0  0  0
 36 37  1  0  0  0  0
 36 39  1  0  0  0  0
 37 38  2  0  0  0  0
 37 79  1  0  0  0  0
 38 80  1  0  0  0  0
 39 40  1  0  0  0  0
 39 81  1  0  0  0  0
 39 82  1  0  0  0  0
 40 41  1  0  0  0  0
 40 83  1  0  0  0  0
 40 84  1  0  0  0  0
 41 42  1  0  0  0  0
 41 85  1  0  0  0  0
 41 86  1  0  0  0  0
 42 43  2  0  0  0  0
 42 47  1  0  0  0  0
 43 44  1  0  0  0  0
 43 87  1  0  0  0  0
 44 45  2  0  0  0  0
 44 88  1  0  0  0  0
 45 46  1  0  0  0  0
 45 48  1  0  0  0  0
 46 47  2  0  0  0  0
 46 89  1  0  0  0  0
 47 90  1  0  0  0  0
 50 91  1  0  0  0  0
 50 92  1  0  0  0  0
M  CHG  3  16   1  23  -1  40   1
M  END
