CatS_155:1_D
 OpenBabel12041818463D

 96100  0  0  1  0  0  0  0  0999 V2000
   36.8303   -6.8198   38.4360 C   0  0  0  0  0  0  0  0  0  0  0  0
   36.9497   -5.6327   39.4138 C   0  0  0  0  0  0  0  0  0  0  0  0
   35.5139   -5.1934   39.7606 C   0  0  0  0  0  0  0  0  0  0  0  0
   37.7560   -5.9687   40.7015 C   0  0  1  0  0  0  0  0  0  0  0  0
   39.1159   -6.6625   40.4585 C   0  0  0  0  0  0  0  0  0  0  0  0
   39.6840   -7.2047   41.7914 C   0  0  0  0  0  0  0  0  0  0  0  0
   39.3237   -6.3416   42.9802 N   0  3  2  0  0  0  0  0  0  0  0  0
   39.1338   -4.8945   42.6013 C   0  0  0  0  0  0  0  0  0  0  0  0
   37.9603   -4.7230   41.6052 C   0  0  0  0  0  0  0  0  0  0  0  0
   40.2734   -6.5433   44.1337 C   0  0  0  0  0  0  0  0  0  0  0  0
   40.2057   -7.9572   44.7498 C   0  0  1  0  0  0  0  0  0  0  0  0
   41.5230   -8.3111   45.4669 C   0  0  0  0  0  0  0  0  0  0  0  0
   42.2720   -7.2226   46.1152 N   0  0  0  0  0  0  0  0  0  0  0  0
   42.1576   -6.6975   47.3624 C   0  0  0  0  0  0  0  0  0  0  0  0
   42.8891   -5.5944   47.5296 C   0  0  0  0  0  0  0  0  0  0  0  0
   43.5486   -5.4428   46.2872 C   0  0  0  0  0  0  0  0  0  0  0  0
   43.1625   -6.4178   45.4906 N   0  0  0  0  0  0  0  0  0  0  0  0
   44.4926   -4.4212   45.8693 C   0  0  0  0  0  0  0  0  0  0  0  0
   45.5618   -4.0715   46.6722 C   0  0  0  0  0  0  0  0  0  0  0  0
   46.4586   -3.1152   46.2602 C   0  0  0  0  0  0  0  0  0  0  0  0
   46.3456   -2.4902   45.0329 C   0  0  0  0  0  0  0  0  0  0  0  0
   45.2746   -2.8526   44.2208 C   0  0  0  0  0  0  0  0  0  0  0  0
   44.3616   -3.7933   44.6446 C   0  0  0  0  0  0  0  0  0  0  0  0
   45.0098   -2.2071   42.5575 S   0  0  0  0  0  0  0  0  0  0  0  0
   45.4529   -0.4736   42.2515 C   0  0  0  0  0  0  0  0  0  0  0  0
   45.9864   -0.3920   40.8072 C   0  0  0  0  0  0  0  0  0  0  0  0
   46.8711   -1.5273   40.3486 N   0  3  1  0  0  0  0  0  0  0  0  0
   46.3513   -2.2644   39.1333 C   0  0  0  0  0  0  0  0  0  0  0  0
   47.3223   -3.3659   38.6639 C   0  0  0  0  0  0  0  0  0  0  0  0
   48.7077   -2.7637   38.3738 C   0  0  0  0  0  0  0  0  0  0  0  0
   49.2602   -2.1049   39.6498 C   0  0  0  0  0  0  0  0  0  0  0  0
   48.2852   -1.0265   40.1675 C   0  0  0  0  0  0  0  0  0  0  0  0
   50.4915   -1.5218   39.3721 F   0  0  0  0  0  0  0  0  0  0  0  0
   49.4771   -3.0713   40.6257 F   0  0  0  0  0  0  0  0  0  0  0  0
   47.4358   -1.4634   44.7260 C   0  0  0  0  0  0  0  0  0  0  0  0
   48.4875   -1.5379   45.6329 F   0  0  0  0  0  0  0  0  0  0  0  0
   47.9448   -1.6582   43.4460 F   0  0  0  0  0  0  0  0  0  0  0  0
   46.9899   -0.1451   44.7675 F   0  0  0  0  0  0  0  0  0  0  0  0
   42.9194   -4.8226   48.8442 C   0  0  0  0  0  0  0  0  0  0  0  0
   41.8234   -5.1622   49.7871 N   0  0  0  0  0  0  0  0  0  0  0  0
   41.6870   -6.6351   49.8534 C   0  0  0  0  0  0  0  0  0  0  0  0
   41.3018   -7.2558   48.4865 C   0  0  0  0  0  0  0  0  0  0  0  0
   41.8817   -4.3093   51.1822 S   0  0  0  0  0  0  0  0  0  0  0  0
   41.9289   -2.9220   50.8477 O   0  0  0  0  0  0  0  0  0  0  0  0
   40.7548   -4.7072   51.9652 O   0  0  0  0  0  0  0  0  0  0  0  0
   43.3800   -4.7267   52.1194 C   0  0  0  0  0  0  0  0  0  0  0  0
   39.1299   -8.0371   45.6957 O   0  0  0  0  0  0  0  0  0  0  0  0
   37.5789   -4.5364   38.7320 O   0  0  0  0  0  0  0  0  0  0  0  0
   40.0528   -8.6054   44.0038 H   0  0  0  0  0  0  0  0  0  0  0  0
   37.2176   -6.5547   37.5530 H   0  0  0  0  0  0  0  0  0  0  0  0
   37.3277   -7.6079   38.7989 H   0  0  0  0  0  0  0  0  0  0  0  0
   35.8680   -7.0668   38.3220 H   0  0  0  0  0  0  0  0  0  0  0  0
   35.3699   -4.2606   39.4300 H   0  0  0  0  0  0  0  0  0  0  0  0
   34.8575   -5.8099   39.3256 H   0  0  0  0  0  0  0  0  0  0  0  0
   35.3824   -5.2246   40.7514 H   0  0  0  0  0  0  0  0  0  0  0  0
   37.1787   -6.6354   41.1729 H   0  0  0  0  0  0  0  0  0  0  0  0
   39.7586   -6.0048   40.0656 H   0  0  0  0  0  0  0  0  0  0  0  0
   38.9843   -7.4261   39.8264 H   0  0  0  0  0  0  0  0  0  0  0  0
   40.6803   -7.2524   41.7191 H   0  0  0  0  0  0  0  0  0  0  0  0
   39.2804   -8.1067   41.9442 H   0  0  0  0  0  0  0  0  0  0  0  0
   38.5090   -6.6294   43.2683 H   0  0  0  0  0  0  0  0  0  0  0  0
   39.9743   -4.5535   42.1803 H   0  0  0  0  0  0  0  0  0  0  0  0
   38.9209   -4.3768   43.4300 H   0  0  0  0  0  0  0  0  0  0  0  0
   37.1199   -4.5592   42.1218 H   0  0  0  0  0  0  0  0  0  0  0  0
   38.1813   -3.9506   41.0097 H   0  0  0  0  0  0  0  0  0  0  0  0
   40.0555   -5.8750   44.8450 H   0  0  0  0  0  0  0  0  0  0  0  0
   41.1994   -6.4250   43.7751 H   0  0  0  0  0  0  0  0  0  0  0  0
   42.1284   -8.7294   44.7897 H   0  0  0  0  0  0  0  0  0  0  0  0
   41.2438   -8.9039   46.2223 H   0  0  0  0  0  0  0  0  0  0  0  0
   45.6835   -4.5172   47.5590 H   0  0  0  0  0  0  0  0  0  0  0  0
   47.2145   -2.8647   46.8653 H   0  0  0  0  0  0  0  0  0  0  0  0
   43.5887   -4.0267   44.0545 H   0  0  0  0  0  0  0  0  0  0  0  0
   46.1569   -0.1784   42.8975 H   0  0  0  0  0  0  0  0  0  0  0  0
   44.6599    0.1235   42.3717 H   0  0  0  0  0  0  0  0  0  0  0  0
   46.5090    0.4564   40.7229 H   0  0  0  0  0  0  0  0  0  0  0  0
   45.1757   -0.4386   40.2236 H   0  0  0  0  0  0  0  0  0  0  0  0
   46.8973   -2.1394   41.0237 H   0  0  0  0  0  0  0  0  0  0  0  0
   46.2189   -1.6094   38.3894 H   0  0  0  0  0  0  0  0  0  0  0  0
   45.4887   -2.7030   39.3851 H   0  0  0  0  0  0  0  0  0  0  0  0
   46.9640   -3.7923   37.8333 H   0  0  0  0  0  0  0  0  0  0  0  0
   47.4106   -4.0524   39.3857 H   0  0  0  0  0  0  0  0  0  0  0  0
   48.6297   -2.0789   37.6493 H   0  0  0  0  0  0  0  0  0  0  0  0
   49.3302   -3.4888   38.0791 H   0  0  0  0  0  0  0  0  0  0  0  0
   48.6189   -0.6918   41.0487 H   0  0  0  0  0  0  0  0  0  0  0  0
   48.2544   -0.3044   39.4765 H   0  0  0  0  0  0  0  0  0  0  0  0
   42.8630   -3.8463   48.6354 H   0  0  0  0  0  0  0  0  0  0  0  0
   43.7723   -5.0755   49.3009 H   0  0  0  0  0  0  0  0  0  0  0  0
   40.9804   -6.8636   50.5231 H   0  0  0  0  0  0  0  0  0  0  0  0
   42.5751   -7.0114   50.1178 H   0  0  0  0  0  0  0  0  0  0  0  0
   41.4259   -8.2471   48.5302 H   0  0  0  0  0  0  0  0  0  0  0  0
   40.3467   -7.0279   48.2973 H   0  0  0  0  0  0  0  0  0  0  0  0
   43.1148   -5.1472   52.9869 H   0  0  0  0  0  0  0  0  0  0  0  0
   43.9408   -5.3658   51.5929 H   0  0  0  0  0  0  0  0  0  0  0  0
   43.9098   -3.8968   52.2944 H   0  0  0  0  0  0  0  0  0  0  0  0
   38.2428   -7.8517   45.2587 H   0  0  0  0  0  0  0  0  0  0  0  0
   38.1787   -4.8610   37.9926 H   0  0  0  0  0  0  0  0  0  0  0  0
  1  2  1  0  0  0  0
  1 50  1  0  0  0  0
  1 51  1  0  0  0  0
  1 52  1  0  0  0  0
  2  3  1  0  0  0  0
  2  4  1  0  0  0  0
  2 48  1  0  0  0  0
  3 53  1  0  0  0  0
  3 54  1  0  0  0  0
  3 55  1  0  0  0  0
  4  5  1  0  0  0  0
  4  9  1  0  0  0  0
  4 56  1  1  0  0  0
  5  6  1  0  0  0  0
  5 57  1  0  0  0  0
  5 58  1  0  0  0  0
  6  7  1  0  0  0  0
  6 59  1  0  0  0  0
  6 60  1  0  0  0  0
  7  8  1  0  0  0  0
  7 10  1  0  0  0  0
  7 61  1  1  0  0  0
  8  9  1  0  0  0  0
  8 62  1  0  0  0  0
  8 63  1  0  0  0  0
  9 64  1  0  0  0  0
  9 65  1  0  0  0  0
 10 11  1  0  0  0  0
 10 66  1  0  0  0  0
 10 67  1  0  0  0  0
 11 12  1  0  0  0  0
 11 47  1  0  0  0  0
 11 49  1  6  0  0  0
 12 13  1  0  0  0  0
 12 68  1  0  0  0  0
 12 69  1  0  0  0  0
 13 14  1  0  0  0  0
 13 17  1  0  0  0  0
 14 15  2  0  0  0  0
 14 42  1  0  0  0  0
 15 16  1  0  0  0  0
 15 39  1  0  0  0  0
 16 17  2  0  0  0  0
 16 18  1  0  0  0  0
 18 19  2  0  0  0  0
 18 23  1  0  0  0  0
 19 20  1  0  0  0  0
 19 70  1  0  0  0  0
 20 21  2  0  0  0  0
 20 71  1  0  0  0  0
 21 22  1  0  0  0  0
 21 35  1  0  0  0  0
 22 23  2  0  0  0  0
 22 24  1  0  0  0  0
 23 72  1  0  0  0  0
 24 25  1  0  0  0  0
 25 26  1  0  0  0  0
 25 73  1  0  0  0  0
 25 74  1  0  0  0  0
 26 27  1  0  0  0  0
 26 75  1  0  0  0  0
 26 76  1  0  0  0  0
 27 28  1  0  0  0  0
 27 32  1  0  0  0  0
 27 77  1  1  0  0  0
 28 29  1  0  0  0  0
 28 78  1  0  0  0  0
 28 79  1  0  0  0  0
 29 30  1  0  0  0  0
 29 80  1  0  0  0  0
 29 81  1  0  0  0  0
 30 31  1  0  0  0  0
 30 82  1  0  0  0  0
 30 83  1  0  0  0  0
 31 32  1  0  0  0  0
 31 33  1  0  0  0  0
 31 34  1  0  0  0  0
 32 84  1  0  0  0  0
 32 85  1  0  0  0  0
 35 36  1  0  0  0  0
 35 37  1  0  0  0  0
 35 38  1  0  0  0  0
 39 40  1  0  0  0  0
 39 86  1  0  0  0  0
 39 87  1  0  0  0  0
 40 41  1  0  0  0  0
 40 43  1  0  0  0  0
 41 42  1  0  0  0  0
 41 88  1  0  0  0  0
 41 89  1  0  0  0  0
 42 90  1  0  0  0  0
 42 91  1  0  0  0  0
 43 44  2  0  0  0  0
 43 45  2  0  0  0  0
 43 46  1  0  0  0  0
 46 92  1  0  0  0  0
 46 93  1  0  0  0  0
 46 94  1  0  0  0  0
 47 95  1  0  0  0  0
 48 96  1  0  0  0  0
M  CHG  2   7   1  27   1
M  END
