CatS_366:1_D
 OpenBabel12041818463D

 80 84  0  0  0  0  0  0  0  0999 V2000
   43.3127   -8.9600   47.4214 C   0  0  0  0  0  0  0  0  0  0  0  0
   41.8070   -8.0951   47.9390 S   0  0  0  0  0  0  0  0  0  0  0  0
   42.1835   -7.1031   48.8960 O   0  0  0  0  0  0  0  0  0  0  0  0
   40.8345   -9.0680   48.3197 O   0  0  0  0  0  0  0  0  0  0  0  0
   41.2092   -7.3113   46.6463 N   0  0  0  0  0  0  0  0  0  0  0  0
   40.7604   -8.2036   45.5570 C   0  0  0  0  0  0  0  0  0  0  0  0
   39.7887   -7.4887   44.5938 C   0  0  0  0  0  0  0  0  0  0  0  0
   40.3572   -6.1444   44.1763 C   0  0  0  0  0  0  0  0  0  0  0  0
   41.3645   -5.5687   44.8343 C   0  0  0  0  0  0  0  0  0  0  0  0
   41.5803   -4.3654   44.1219 C   0  0  0  0  0  0  0  0  0  0  0  0
   40.6939   -4.2918   43.1490 N   0  0  0  0  0  0  0  0  0  0  0  0
   39.9031   -5.3920   43.1439 N   0  0  0  0  0  0  0  0  0  0  0  0
   38.7144   -5.5840   42.3011 C   0  0  0  0  0  0  0  0  0  0  0  0
   38.3793   -4.5082   41.2551 C   0  0  0  0  0  0  0  0  0  0  0  0
   37.8134   -5.1422   39.9628 C   0  0  0  0  0  0  0  0  0  0  0  0
   36.4469   -5.7685   40.1271 N   0  3  0  0  0  0  0  0  0  0  0  0
   35.4421   -5.2658   39.1201 C   0  0  0  0  0  0  0  0  0  0  0  0
   35.7497   -5.8789   37.7402 C   0  0  0  0  0  0  0  0  0  0  0  0
   35.7400   -7.3167   37.8214 O   0  0  0  0  0  0  0  0  0  0  0  0
   36.7295   -7.8218   38.7398 C   0  0  0  0  0  0  0  0  0  0  0  0
   36.4905   -7.2757   40.1627 C   0  0  0  0  0  0  0  0  0  0  0  0
   42.5883   -3.3474   44.3692 C   0  0  0  0  0  0  0  0  0  0  0  0
   42.3399   -2.3586   45.3116 C   0  0  0  0  0  0  0  0  0  0  0  0
   43.2802   -1.3860   45.5695 C   0  0  0  0  0  0  0  0  0  0  0  0
   44.4699   -1.3702   44.8834 C   0  0  0  0  0  0  0  0  0  0  0  0
   44.7385   -2.3570   43.9366 C   0  0  0  0  0  0  0  0  0  0  0  0
   43.7928   -3.3494   43.6902 C   0  0  0  0  0  0  0  0  0  0  0  0
   46.0115   -2.2929   43.2618 C   0  0  0  0  0  0  0  0  0  0  0  0
   47.0739   -2.3309   42.6607 C   0  0  0  0  0  0  0  0  0  0  0  0
   48.3041   -2.4758   41.9257 C   0  0  0  0  0  0  0  0  0  0  0  0
   49.5542   -2.3604   42.5237 C   0  0  0  0  0  0  0  0  0  0  0  0
   50.6840   -2.4737   41.7527 C   0  0  0  0  0  0  0  0  0  0  0  0
   50.5840   -2.7022   40.3944 C   0  0  0  0  0  0  0  0  0  0  0  0
   49.3485   -2.8241   39.7902 C   0  0  0  0  0  0  0  0  0  0  0  0
   48.2166   -2.7152   40.5593 C   0  0  0  0  0  0  0  0  0  0  0  0
   49.2419   -3.0945   38.2931 C   0  0  0  0  0  0  0  0  0  0  0  0
   50.2432   -2.3190   37.4738 N   0  3  0  0  0  0  0  0  0  0  0  0
   50.7070   -2.9914   36.2104 C   0  0  0  0  0  0  0  0  0  0  0  0
   51.0773   -4.4308   36.4611 C   0  0  0  0  0  0  0  0  0  0  0  0
   52.0415   -4.6527   37.2723 O   0  5  0  0  0  0  0  0  0  0  0  0
   50.3974   -5.3178   35.8347 O   0  0  0  0  0  0  0  0  0  0  0  0
   45.6481   -0.1188   45.1981 Cl  0  0  0  0  0  0  0  0  0  0  0  0
   42.0046   -6.1975   46.0677 C   0  0  0  0  0  0  0  0  0  0  0  0
   43.4726   -8.7826   46.4503 H   0  0  0  0  0  0  0  0  0  0  0  0
   44.0914   -8.6322   47.9563 H   0  0  0  0  0  0  0  0  0  0  0  0
   43.2050   -9.9427   47.5719 H   0  0  0  0  0  0  0  0  0  0  0  0
   40.2999   -8.9968   45.9555 H   0  0  0  0  0  0  0  0  0  0  0  0
   41.5650   -8.4836   45.0335 H   0  0  0  0  0  0  0  0  0  0  0  0
   38.9099   -7.3510   45.0507 H   0  0  0  0  0  0  0  0  0  0  0  0
   39.6621   -8.0549   43.7791 H   0  0  0  0  0  0  0  0  0  0  0  0
   37.9266   -5.6616   42.9119 H   0  0  0  0  0  0  0  0  0  0  0  0
   38.9272   -6.3959   41.7574 H   0  0  0  0  0  0  0  0  0  0  0  0
   39.2093   -3.9963   41.0339 H   0  0  0  0  0  0  0  0  0  0  0  0
   37.6846   -3.8996   41.6384 H   0  0  0  0  0  0  0  0  0  0  0  0
   38.4499   -5.8488   39.6537 H   0  0  0  0  0  0  0  0  0  0  0  0
   37.7103   -4.4004   39.3002 H   0  0  0  0  0  0  0  0  0  0  0  0
   36.1424   -5.5141   40.9470 H   0  0  0  0  0  0  0  0  0  0  0  0
   35.4939   -4.2687   39.0641 H   0  0  0  0  0  0  0  0  0  0  0  0
   34.5216   -5.5329   39.4052 H   0  0  0  0  0  0  0  0  0  0  0  0
   36.6492   -5.5689   37.4324 H   0  0  0  0  0  0  0  0  0  0  0  0
   35.0493   -5.5853   37.0894 H   0  0  0  0  0  0  0  0  0  0  0  0
   37.6386   -7.5448   38.4286 H   0  0  0  0  0  0  0  0  0  0  0  0
   36.6607   -8.8191   38.7662 H   0  0  0  0  0  0  0  0  0  0  0  0
   35.6229   -7.6267   40.5150 H   0  0  0  0  0  0  0  0  0  0  0  0
   37.2361   -7.5717   40.7598 H   0  0  0  0  0  0  0  0  0  0  0  0
   41.4714   -2.3527   45.8071 H   0  0  0  0  0  0  0  0  0  0  0  0
   43.0956   -0.6870   46.2603 H   0  0  0  0  0  0  0  0  0  0  0  0
   43.9856   -4.0659   43.0197 H   0  0  0  0  0  0  0  0  0  0  0  0
   49.6293   -2.1963   43.5072 H   0  0  0  0  0  0  0  0  0  0  0  0
   51.5855   -2.3903   42.1773 H   0  0  0  0  0  0  0  0  0  0  0  0
   51.4147   -2.7802   39.8430 H   0  0  0  0  0  0  0  0  0  0  0  0
   47.3178   -2.8096   40.1312 H   0  0  0  0  0  0  0  0  0  0  0  0
   48.3213   -2.8487   37.9896 H   0  0  0  0  0  0  0  0  0  0  0  0
   49.4354   -4.0656   38.1533 H   0  0  0  0  0  0  0  0  0  0  0  0
   49.8796   -1.5161   37.2475 H   0  0  0  0  0  0  0  0  0  0  0  0
   50.9662   -2.1020   37.9826 H   0  0  0  0  0  0  0  0  0  0  0  0
   51.5044   -2.5044   35.8542 H   0  0  0  0  0  0  0  0  0  0  0  0
   49.9580   -2.9700   35.5482 H   0  0  0  0  0  0  0  0  0  0  0  0
   42.9062   -6.5486   45.8151 H   0  0  0  0  0  0  0  0  0  0  0  0
   42.0600   -5.4829   46.7650 H   0  0  0  0  0  0  0  0  0  0  0  0
  1  2  1  0  0  0  0
  1 44  1  0  0  0  0
  1 45  1  0  0  0  0
  1 46  1  0  0  0  0
  2  3  2  0  0  0  0
  2  4  2  0  0  0  0
  2  5  1  0  0  0  0
  5  6  1  0  0  0  0
  5 43  1  0  0  0  0
  6  7  1  0  0  0  0
  6 47  1  0  0  0  0
  6 48  1  0  0  0  0
  7  8  1  0  0  0  0
  7 49  1  0  0  0  0
  7 50  1  0  0  0  0
  8  9  2  0  0  0  0
  8 12  1  0  0  0  0
  9 10  1  0  0  0  0
  9 43  1  0  0  0  0
 10 11  2  0  0  0  0
 10 22  1  0  0  0  0
 11 12  1  0  0  0  0
 12 13  1  0  0  0  0
 13 14  1  0  0  0  0
 13 51  1  0  0  0  0
 13 52  1  0  0  0  0
 14 15  1  0  0  0  0
 14 53  1  0  0  0  0
 14 54  1  0  0  0  0
 15 16  1  0  0  0  0
 15 55  1  0  0  0  0
 15 56  1  0  0  0  0
 16 17  1  0  0  0  0
 16 21  1  0  0  0  0
 16 57  1  0  0  0  0
 17 18  1  0  0  0  0
 17 58  1  0  0  0  0
 17 59  1  0  0  0  0
 18 19  1  0  0  0  0
 18 60  1  0  0  0  0
 18 61  1  0  0  0  0
 19 20  1  0  0  0  0
 20 21  1  0  0  0  0
 20 62  1  0  0  0  0
 20 63  1  0  0  0  0
 21 64  1  0  0  0  0
 21 65  1  0  0  0  0
 22 23  2  0  0  0  0
 22 27  1  0  0  0  0
 23 24  1  0  0  0  0
 23 66  1  0  0  0  0
 24 25  2  0  0  0  0
 24 67  1  0  0  0  0
 25 26  1  0  0  0  0
 25 42  1  0  0  0  0
 26 27  2  0  0  0  0
 26 28  1  0  0  0  0
 27 68  1  0  0  0  0
 28 29  3  0  0  0  0
 29 30  1  0  0  0  0
 30 31  2  0  0  0  0
 30 35  1  0  0  0  0
 31 32  1  0  0  0  0
 31 69  1  0  0  0  0
 32 33  2  0  0  0  0
 32 70  1  0  0  0  0
 33 34  1  0  0  0  0
 33 71  1  0  0  0  0
 34 35  2  0  0  0  0
 34 36  1  0  0  0  0
 35 72  1  0  0  0  0
 36 37  1  0  0  0  0
 36 73  1  0  0  0  0
 36 74  1  0  0  0  0
 37 38  1  0  0  0  0
 37 75  1  0  0  0  0
 37 76  1  0  0  0  0
 38 39  1  0  0  0  0
 38 77  1  0  0  0  0
 38 78  1  0  0  0  0
 39 40  1  0  0  0  0
 39 41  2  0  0  0  0
 43 79  1  0  0  0  0
 43 80  1  0  0  0  0
M  CHG  3  16   1  37   1  40  -1
M  END
