CatS_446:1_D
 OpenBabel12041818463D

 88 93  0  0  0  0  0  0  0  0999 V2000
   43.5769   -8.5204   48.5686 C   0  0  0  0  0  0  0  0  0  0  0  0
   42.0250   -7.6039   48.7730 S   0  0  0  0  0  0  0  0  0  0  0  0
   41.0765   -8.4431   49.4280 O   0  0  0  0  0  0  0  0  0  0  0  0
   42.3272   -6.3454   49.3721 O   0  0  0  0  0  0  0  0  0  0  0  0
   41.4259   -7.2674   47.3067 N   0  0  0  0  0  0  0  0  0  0  0  0
   41.0988   -8.4631   46.5027 C   0  0  0  0  0  0  0  0  0  0  0  0
   40.1072   -8.1298   45.3663 C   0  0  0  0  0  0  0  0  0  0  0  0
   40.5190   -6.8651   44.6339 C   0  0  0  0  0  0  0  0  0  0  0  0
   41.4466   -6.0421   45.1328 C   0  0  0  0  0  0  0  0  0  0  0  0
   41.5383   -5.0156   44.1659 C   0  0  0  0  0  0  0  0  0  0  0  0
   40.6788   -5.2827   43.2069 N   0  0  0  0  0  0  0  0  0  0  0  0
   40.0136   -6.4346   43.4476 N   0  0  0  0  0  0  0  0  0  0  0  0
   39.0797   -7.0526   42.4921 C   0  0  0  0  0  0  0  0  0  0  0  0
   39.6080   -7.6738   41.1829 C   0  0  0  0  0  0  0  0  0  0  0  0
   39.6228   -6.6554   40.0178 C   0  0  0  0  0  0  0  0  0  0  0  0
   38.2655   -6.3424   39.4311 N   0  3  0  0  0  0  0  0  0  0  0  0
   37.5468   -5.2578   40.1988 C   0  0  0  0  0  0  0  0  0  0  0  0
   36.1970   -4.8989   39.5426 C   0  0  0  0  0  0  0  0  0  0  0  0
   35.3283   -6.1612   39.3828 C   0  0  0  0  0  0  0  0  0  0  0  0
   36.0843   -7.2112   38.5483 C   0  0  0  0  0  0  0  0  0  0  0  0
   37.4057   -7.5707   39.2567 C   0  0  0  0  0  0  0  0  0  0  0  0
   42.4054   -3.8488   44.1247 C   0  0  0  0  0  0  0  0  0  0  0  0
   42.1161   -2.8119   44.9992 C   0  0  0  0  0  0  0  0  0  0  0  0
   42.8833   -1.6707   45.0246 C   0  0  0  0  0  0  0  0  0  0  0  0
   43.9535   -1.5424   44.1760 C   0  0  0  0  0  0  0  0  0  0  0  0
   44.2627   -2.5682   43.2847 C   0  0  0  0  0  0  0  0  0  0  0  0
   43.4842   -3.7233   43.2675 C   0  0  0  0  0  0  0  0  0  0  0  0
   45.3811   -2.3760   42.3950 C   0  0  0  0  0  0  0  0  0  0  0  0
   46.3090   -2.2778   41.6072 C   0  0  0  0  0  0  0  0  0  0  0  0
   47.3838   -2.2360   40.6482 C   0  0  0  0  0  0  0  0  0  0  0  0
   47.0673   -2.0155   39.3119 C   0  0  0  0  0  0  0  0  0  0  0  0
   48.0550   -2.0205   38.3631 C   0  0  0  0  0  0  0  0  0  0  0  0
   49.3657   -2.2445   38.7317 C   0  0  0  0  0  0  0  0  0  0  0  0
   49.6988   -2.4450   40.0588 C   0  0  0  0  0  0  0  0  0  0  0  0
   48.7117   -2.4384   41.0145 C   0  0  0  0  0  0  0  0  0  0  0  0
   51.1443   -2.7059   40.4671 C   0  0  0  0  0  0  0  0  0  0  0  0
   52.0776   -1.5233   40.3545 N   0  3  0  0  0  0  0  0  0  0  0  0
   53.4355   -1.8919   39.8066 C   0  0  0  0  0  0  0  0  0  0  0  0
   54.2711   -2.6041   40.8875 C   0  0  0  0  0  0  0  0  0  0  0  0
   54.3636   -1.7868   42.0690 O   0  0  0  0  0  0  0  0  0  0  0  0
   53.0743   -1.5286   42.6551 C   0  0  0  0  0  0  0  0  0  0  0  0
   52.1716   -0.7741   41.6605 C   0  0  0  0  0  0  0  0  0  0  0  0
   50.6033   -2.2820   37.5103 Cl  0  0  0  0  0  0  0  0  0  0  0  0
   44.9137   -0.0907   44.2189 Cl  0  0  0  0  0  0  0  0  0  0  0  0
   42.1576   -6.3016   46.4553 C   0  0  0  0  0  0  0  0  0  0  0  0
   43.7591   -8.6385   47.5925 H   0  0  0  0  0  0  0  0  0  0  0  0
   44.3273   -8.0128   48.9922 H   0  0  0  0  0  0  0  0  0  0  0  0
   43.5000   -9.4151   49.0085 H   0  0  0  0  0  0  0  0  0  0  0  0
   40.6924   -9.1556   47.0988 H   0  0  0  0  0  0  0  0  0  0  0  0
   41.9437   -8.8028   46.0895 H   0  0  0  0  0  0  0  0  0  0  0  0
   39.1943   -8.0028   45.7543 H   0  0  0  0  0  0  0  0  0  0  0  0
   40.1069   -8.8872   44.7134 H   0  0  0  0  0  0  0  0  0  0  0  0
   38.4213   -6.3459   42.2331 H   0  0  0  0  0  0  0  0  0  0  0  0
   38.7312   -7.8443   42.9940 H   0  0  0  0  0  0  0  0  0  0  0  0
   39.0236   -8.4456   40.9321 H   0  0  0  0  0  0  0  0  0  0  0  0
   40.5496   -7.9704   41.3419 H   0  0  0  0  0  0  0  0  0  0  0  0
   40.2018   -7.0223   39.2897 H   0  0  0  0  0  0  0  0  0  0  0  0
   39.9674   -5.7975   40.3989 H   0  0  0  0  0  0  0  0  0  0  0  0
   38.4065   -6.0082   38.5953 H   0  0  0  0  0  0  0  0  0  0  0  0
   38.1239   -4.4416   40.2279 H   0  0  0  0  0  0  0  0  0  0  0  0
   37.3649   -5.5956   41.1222 H   0  0  0  0  0  0  0  0  0  0  0  0
   36.3629   -4.4934   38.6436 H   0  0  0  0  0  0  0  0  0  0  0  0
   35.7150   -4.2454   40.1263 H   0  0  0  0  0  0  0  0  0  0  0  0
   34.4728   -5.9215   38.9238 H   0  0  0  0  0  0  0  0  0  0  0  0
   35.1276   -6.5406   40.2860 H   0  0  0  0  0  0  0  0  0  0  0  0
   36.2792   -6.8410   37.6401 H   0  0  0  0  0  0  0  0  0  0  0  0
   35.5217   -8.0327   38.4548 H   0  0  0  0  0  0  0  0  0  0  0  0
   37.2043   -7.9629   40.1543 H   0  0  0  0  0  0  0  0  0  0  0  0
   37.9009   -8.2340   38.6958 H   0  0  0  0  0  0  0  0  0  0  0  0
   41.3375   -2.8955   45.6211 H   0  0  0  0  0  0  0  0  0  0  0  0
   42.6606   -0.9334   45.6624 H   0  0  0  0  0  0  0  0  0  0  0  0
   43.7057   -4.4642   42.6335 H   0  0  0  0  0  0  0  0  0  0  0  0
   46.1177   -1.8532   39.0437 H   0  0  0  0  0  0  0  0  0  0  0  0
   47.8262   -1.8618   37.4027 H   0  0  0  0  0  0  0  0  0  0  0  0
   48.9477   -2.5793   41.9760 H   0  0  0  0  0  0  0  0  0  0  0  0
   51.5014   -3.4389   39.8884 H   0  0  0  0  0  0  0  0  0  0  0  0
   51.1161   -2.9387   41.4392 H   0  0  0  0  0  0  0  0  0  0  0  0
   51.7052   -0.9403   39.7610 H   0  0  0  0  0  0  0  0  0  0  0  0
   53.9104   -1.0628   39.5116 H   0  0  0  0  0  0  0  0  0  0  0  0
   53.3164   -2.5094   39.0291 H   0  0  0  0  0  0  0  0  0  0  0  0
   55.1893   -2.7808   40.5332 H   0  0  0  0  0  0  0  0  0  0  0  0
   53.8258   -3.4672   41.1255 H   0  0  0  0  0  0  0  0  0  0  0  0
   53.1910   -0.9773   43.4812 H   0  0  0  0  0  0  0  0  0  0  0  0
   52.6426   -2.4009   42.8846 H   0  0  0  0  0  0  0  0  0  0  0  0
   51.2565   -0.6769   42.0518 H   0  0  0  0  0  0  0  0  0  0  0  0
   52.5685    0.1272   41.4869 H   0  0  0  0  0  0  0  0  0  0  0  0
   43.0704   -6.6641   46.2668 H   0  0  0  0  0  0  0  0  0  0  0  0
   42.2069   -5.4340   46.9500 H   0  0  0  0  0  0  0  0  0  0  0  0
  1  2  1  0  0  0  0
  1 46  1  0  0  0  0
  1 47  1  0  0  0  0
  1 48  1  0  0  0  0
  2  3  2  0  0  0  0
  2  4  2  0  0  0  0
  2  5  1  0  0  0  0
  5  6  1  0  0  0  0
  5 45  1  0  0  0  0
  6  7  1  0  0  0  0
  6 49  1  0  0  0  0
  6 50  1  0  0  0  0
  7  8  1  0  0  0  0
  7 51  1  0  0  0  0
  7 52  1  0  0  0  0
  8  9  2  0  0  0  0
  8 12  1  0  0  0  0
  9 10  1  0  0  0  0
  9 45  1  0  0  0  0
 10 11  2  0  0  0  0
 10 22  1  0  0  0  0
 11 12  1  0  0  0  0
 12 13  1  0  0  0  0
 13 14  1  0  0  0  0
 13 53  1  0  0  0  0
 13 54  1  0  0  0  0
 14 15  1  0  0  0  0
 14 55  1  0  0  0  0
 14 56  1  0  0  0  0
 15 16  1  0  0  0  0
 15 57  1  0  0  0  0
 15 58  1  0  0  0  0
 16 17  1  0  0  0  0
 16 21  1  0  0  0  0
 16 59  1  0  0  0  0
 17 18  1  0  0  0  0
 17 60  1  0  0  0  0
 17 61  1  0  0  0  0
 18 19  1  0  0  0  0
 18 62  1  0  0  0  0
 18 63  1  0  0  0  0
 19 20  1  0  0  0  0
 19 64  1  0  0  0  0
 19 65  1  0  0  0  0
 20 21  1  0  0  0  0
 20 66  1  0  0  0  0
 20 67  1  0  0  0  0
 21 68  1  0  0  0  0
 21 69  1  0  0  0  0
 22 23  2  0  0  0  0
 22 27  1  0  0  0  0
 23 24  1  0  0  0  0
 23 70  1  0  0  0  0
 24 25  2  0  0  0  0
 24 71  1  0  0  0  0
 25 26  1  0  0  0  0
 25 44  1  0  0  0  0
 26 27  2  0  0  0  0
 26 28  1  0  0  0  0
 27 72  1  0  0  0  0
 28 29  3  0  0  0  0
 29 30  1  0  0  0  0
 30 31  2  0  0  0  0
 30 35  1  0  0  0  0
 31 32  1  0  0  0  0
 31 73  1  0  0  0  0
 32 33  2  0  0  0  0
 32 74  1  0  0  0  0
 33 34  1  0  0  0  0
 33 43  1  0  0  0  0
 34 35  2  0  0  0  0
 34 36  1  0  0  0  0
 35 75  1  0  0  0  0
 36 37  1  0  0  0  0
 36 76  1  0  0  0  0
 36 77  1  0  0  0  0
 37 38  1  0  0  0  0
 37 42  1  0  0  0  0
 37 78  1  0  0  0  0
 38 39  1  0  0  0  0
 38 79  1  0  0  0  0
 38 80  1  0  0  0  0
 39 40  1  0  0  0  0
 39 81  1  0  0  0  0
 39 82  1  0  0  0  0
 40 41  1  0  0  0  0
 41 42  1  0  0  0  0
 41 83  1  0  0  0  0
 41 84  1  0  0  0  0
 42 85  1  0  0  0  0
 42 86  1  0  0  0  0
 45 87  1  0  0  0  0
 45 88  1  0  0  0  0
M  CHG  2  16   1  37   1
M  END
