CatS_230:1_D
 OpenBabel12041818463D

 95 99  0  0  1  0  0  0  0  0999 V2000
   48.0370   -4.0862   39.7594 C   0  0  0  0  0  0  0  0  0  0  0  0
   48.2561   -2.5703   39.5742 C   0  0  0  0  0  0  0  0  0  0  0  0
   49.7532   -2.2938   39.8174 C   0  0  0  0  0  0  0  0  0  0  0  0
   47.9645   -2.2725   38.0886 C   0  0  0  0  0  0  0  0  0  0  0  0
   47.3155   -1.7230   40.4935 C   0  0  2  0  0  0  0  0  0  0  0  0
   47.7314   -1.7389   41.9863 C   0  0  0  0  0  0  0  0  0  0  0  0
   46.8702   -0.7476   42.7945 C   0  0  0  0  0  0  0  0  0  0  0  0
   45.4030   -1.0725   42.6775 N   0  3  1  0  0  0  0  0  0  0  0  0
   44.9515   -1.1439   41.2384 C   0  0  0  0  0  0  0  0  0  0  0  0
   45.8201   -2.1211   40.4206 C   0  0  0  0  0  0  0  0  0  0  0  0
   45.0580   -2.2891   43.5013 C   0  0  0  0  0  0  0  0  0  0  0  0
   43.5458   -2.5854   43.5953 C   0  0  1  0  0  0  0  0  0  0  0  0
   43.3046   -3.9203   44.3304 C   0  0  0  0  0  0  0  0  0  0  0  0
   42.1375   -4.7896   44.0819 N   0  0  0  0  0  0  0  0  0  0  0  0
   41.7178   -5.9644   44.6331 C   0  0  0  0  0  0  0  0  0  0  0  0
   40.6211   -6.4544   44.0481 C   0  0  0  0  0  0  0  0  0  0  0  0
   40.2971   -5.4764   43.0851 C   0  0  0  0  0  0  0  0  0  0  0  0
   41.2057   -4.5271   43.1353 N   0  0  0  0  0  0  0  0  0  0  0  0
   39.1718   -5.4428   42.1707 C   0  0  0  0  0  0  0  0  0  0  0  0
   38.1174   -4.5720   42.3758 C   0  0  0  0  0  0  0  0  0  0  0  0
   37.0617   -4.5360   41.4950 C   0  0  0  0  0  0  0  0  0  0  0  0
   37.0207   -5.3517   40.3823 C   0  0  0  0  0  0  0  0  0  0  0  0
   38.0846   -6.2219   40.1848 C   0  0  0  0  0  0  0  0  0  0  0  0
   39.1394   -6.2699   41.0650 C   0  0  0  0  0  0  0  0  0  0  0  0
   38.1740   -7.3200   38.7676 S   0  0  0  0  0  0  0  0  0  0  0  0
   39.7658   -8.1655   38.9499 C   0  0  0  0  0  0  0  0  0  0  0  0
   40.5887   -8.1117   37.6472 C   0  0  0  0  0  0  0  0  0  0  0  0
   42.0049   -8.6060   37.7912 N   0  3  1  0  0  0  0  0  0  0  0  0
   42.1865  -10.0186   37.3161 C   0  0  0  0  0  0  0  0  0  0  0  0
   42.8662   -9.8932   35.9376 C   0  0  0  0  0  0  0  0  0  0  0  0
   43.2013   -8.4005   35.7396 C   0  0  1  0  0  0  0  0  0  0  0  0
   43.0442   -7.7516   37.1247 C   0  0  0  0  0  0  0  0  0  0  0  0
   44.5200   -8.2720   35.3119 F   0  0  0  0  0  0  0  0  0  0  0  0
   35.8051   -5.1808   39.4687 C   0  0  0  0  0  0  0  0  0  0  0  0
   35.0668   -6.3581   39.4357 F   0  0  0  0  0  0  0  0  0  0  0  0
   36.1572   -4.8856   38.1557 F   0  0  0  0  0  0  0  0  0  0  0  0
   34.9415   -4.1679   39.8695 F   0  0  0  0  0  0  0  0  0  0  0  0
   39.9595   -7.7667   44.4517 C   0  0  0  0  0  0  0  0  0  0  0  0
   40.8721   -8.6328   45.2329 N   0  0  0  0  0  0  0  0  0  0  0  0
   41.4577   -7.8360   46.3309 C   0  0  0  0  0  0  0  0  0  0  0  0
   42.3643   -6.7068   45.7911 C   0  0  0  0  0  0  0  0  0  0  0  0
   40.3469  -10.1128   45.6517 S   0  0  0  0  0  0  0  0  0  0  0  0
   41.4715  -10.8312   46.1568 O   0  0  0  0  0  0  0  0  0  0  0  0
   39.6574  -10.6375   44.5176 O   0  0  0  0  0  0  0  0  0  0  0  0
   39.1340   -9.9351   46.9876 C   0  0  0  0  0  0  0  0  0  0  0  0
   42.9109   -1.5191   44.3162 O   0  0  0  0  0  0  0  0  0  0  0  0
   43.1635   -2.6554   42.6739 H   0  0  0  0  0  0  0  0  0  0  0  0
   42.6083   -7.9722   35.0578 H   0  0  0  0  0  0  0  0  0  0  0  0
   47.3227   -4.2307   40.4441 H   0  0  0  0  0  0  0  0  0  0  0  0
   47.7585   -4.4960   38.8908 H   0  0  0  0  0  0  0  0  0  0  0  0
   48.8878   -4.5148   40.0634 H   0  0  0  0  0  0  0  0  0  0  0  0
   49.8445   -1.6057   40.5372 H   0  0  0  0  0  0  0  0  0  0  0  0
   50.2113   -3.1373   40.0979 H   0  0  0  0  0  0  0  0  0  0  0  0
   50.1750   -1.9592   38.9748 H   0  0  0  0  0  0  0  0  0  0  0  0
   47.2304   -1.5959   38.0301 H   0  0  0  0  0  0  0  0  0  0  0  0
   48.7878   -1.9151   37.6477 H   0  0  0  0  0  0  0  0  0  0  0  0
   47.6861   -3.1137   37.6249 H   0  0  0  0  0  0  0  0  0  0  0  0
   47.4245   -0.8021   40.1193 H   0  0  0  0  0  0  0  0  0  0  0  0
   48.6947   -1.4821   42.0643 H   0  0  0  0  0  0  0  0  0  0  0  0
   47.5933   -2.6594   42.3517 H   0  0  0  0  0  0  0  0  0  0  0  0
   47.0295    0.1784   42.4522 H   0  0  0  0  0  0  0  0  0  0  0  0
   47.1309   -0.8166   43.7575 H   0  0  0  0  0  0  0  0  0  0  0  0
   44.9492   -0.3739   43.0482 H   0  0  0  0  0  0  0  0  0  0  0  0
   45.0128   -0.2324   40.8316 H   0  0  0  0  0  0  0  0  0  0  0  0
   44.0084   -1.4759   41.2221 H   0  0  0  0  0  0  0  0  0  0  0  0
   45.7076   -3.0460   40.7837 H   0  0  0  0  0  0  0  0  0  0  0  0
   45.5260   -2.0862   39.4654 H   0  0  0  0  0  0  0  0  0  0  0  0
   45.4109   -2.1526   44.4269 H   0  0  0  0  0  0  0  0  0  0  0  0
   45.4738   -3.0735   43.0409 H   0  0  0  0  0  0  0  0  0  0  0  0
   43.2784   -3.6959   45.3045 H   0  0  0  0  0  0  0  0  0  0  0  0
   44.0453   -4.4817   43.9613 H   0  0  0  0  0  0  0  0  0  0  0  0
   38.1225   -3.9642   43.1698 H   0  0  0  0  0  0  0  0  0  0  0  0
   36.3058   -3.9037   41.6648 H   0  0  0  0  0  0  0  0  0  0  0  0
   39.8906   -6.9098   40.9032 H   0  0  0  0  0  0  0  0  0  0  0  0
   39.6013   -9.1213   39.1937 H   0  0  0  0  0  0  0  0  0  0  0  0
   40.2862   -7.7015   39.6668 H   0  0  0  0  0  0  0  0  0  0  0  0
   40.6156   -7.1636   37.3303 H   0  0  0  0  0  0  0  0  0  0  0  0
   40.1371   -8.7222   36.9965 H   0  0  0  0  0  0  0  0  0  0  0  0
   42.1993   -8.6077   38.6823 H   0  0  0  0  0  0  0  0  0  0  0  0
   41.3029  -10.4798   37.2344 H   0  0  0  0  0  0  0  0  0  0  0  0
   42.7322  -10.5617   37.9543 H   0  0  0  0  0  0  0  0  0  0  0  0
   42.2483  -10.2085   35.2174 H   0  0  0  0  0  0  0  0  0  0  0  0
   43.6929  -10.4542   35.8931 H   0  0  0  0  0  0  0  0  0  0  0  0
   43.9056   -7.7714   37.6322 H   0  0  0  0  0  0  0  0  0  0  0  0
   42.7851   -6.7870   37.0765 H   0  0  0  0  0  0  0  0  0  0  0  0
   39.6763   -8.2542   43.6258 H   0  0  0  0  0  0  0  0  0  0  0  0
   39.1726   -7.5500   45.0294 H   0  0  0  0  0  0  0  0  0  0  0  0
   41.9990   -8.4379   46.9181 H   0  0  0  0  0  0  0  0  0  0  0  0
   40.7106   -7.4169   46.8468 H   0  0  0  0  0  0  0  0  0  0  0  0
   42.5507   -6.0580   46.5290 H   0  0  0  0  0  0  0  0  0  0  0  0
   43.2102   -7.1231   45.4579 H   0  0  0  0  0  0  0  0  0  0  0  0
   38.2399  -10.2382   46.6580 H   0  0  0  0  0  0  0  0  0  0  0  0
   39.4105  -10.4914   47.7712 H   0  0  0  0  0  0  0  0  0  0  0  0
   39.0826   -8.9773   47.2704 H   0  0  0  0  0  0  0  0  0  0  0  0
   42.6417   -0.7668   43.7066 H   0  0  0  0  0  0  0  0  0  0  0  0
  1  2  1  0  0  0  0
  1 49  1  0  0  0  0
  1 50  1  0  0  0  0
  1 51  1  0  0  0  0
  2  3  1  0  0  0  0
  2  4  1  0  0  0  0
  2  5  1  0  0  0  0
  3 52  1  0  0  0  0
  3 53  1  0  0  0  0
  3 54  1  0  0  0  0
  4 55  1  0  0  0  0
  4 56  1  0  0  0  0
  4 57  1  0  0  0  0
  5  6  1  0  0  0  0
  5 10  1  0  0  0  0
  5 58  1  6  0  0  0
  6  7  1  0  0  0  0
  6 59  1  0  0  0  0
  6 60  1  0  0  0  0
  7  8  1  0  0  0  0
  7 61  1  0  0  0  0
  7 62  1  0  0  0  0
  8  9  1  0  0  0  0
  8 11  1  0  0  0  0
  8 63  1  1  0  0  0
  9 10  1  0  0  0  0
  9 64  1  0  0  0  0
  9 65  1  0  0  0  0
 10 66  1  0  0  0  0
 10 67  1  0  0  0  0
 11 12  1  0  0  0  0
 11 68  1  0  0  0  0
 11 69  1  0  0  0  0
 12 13  1  0  0  0  0
 12 46  1  0  0  0  0
 12 47  1  6  0  0  0
 13 14  1  0  0  0  0
 13 70  1  0  0  0  0
 13 71  1  0  0  0  0
 14 15  1  0  0  0  0
 14 18  1  0  0  0  0
 15 16  2  0  0  0  0
 15 41  1  0  0  0  0
 16 17  1  0  0  0  0
 16 38  1  0  0  0  0
 17 18  2  0  0  0  0
 17 19  1  0  0  0  0
 19 20  2  0  0  0  0
 19 24  1  0  0  0  0
 20 21  1  0  0  0  0
 20 72  1  0  0  0  0
 21 22  2  0  0  0  0
 21 73  1  0  0  0  0
 22 23  1  0  0  0  0
 22 34  1  0  0  0  0
 23 24  2  0  0  0  0
 23 25  1  0  0  0  0
 24 74  1  0  0  0  0
 25 26  1  0  0  0  0
 26 27  1  0  0  0  0
 26 75  1  0  0  0  0
 26 76  1  0  0  0  0
 27 28  1  0  0  0  0
 27 77  1  0  0  0  0
 27 78  1  0  0  0  0
 28 29  1  0  0  0  0
 28 32  1  0  0  0  0
 28 79  1  1  0  0  0
 29 30  1  0  0  0  0
 29 80  1  0  0  0  0
 29 81  1  0  0  0  0
 30 31  1  0  0  0  0
 30 82  1  0  0  0  0
 30 83  1  0  0  0  0
 31 32  1  0  0  0  0
 31 33  1  0  0  0  0
 31 48  1  6  0  0  0
 32 84  1  0  0  0  0
 32 85  1  0  0  0  0
 34 35  1  0  0  0  0
 34 36  1  0  0  0  0
 34 37  1  0  0  0  0
 38 39  1  0  0  0  0
 38 86  1  0  0  0  0
 38 87  1  0  0  0  0
 39 40  1  0  0  0  0
 39 42  1  0  0  0  0
 40 41  1  0  0  0  0
 40 88  1  0  0  0  0
 40 89  1  0  0  0  0
 41 90  1  0  0  0  0
 41 91  1  0  0  0  0
 42 43  2  0  0  0  0
 42 44  2  0  0  0  0
 42 45  1  0  0  0  0
 45 92  1  0  0  0  0
 45 93  1  0  0  0  0
 45 94  1  0  0  0  0
 46 95  1  0  0  0  0
M  CHG  2   8   1  28   1
M  END
