CatS_444:1_D
 OpenBabel12041818463D

 88 93  0  0  0  0  0  0  0  0999 V2000
   49.6856   -1.9771   43.1900 C   0  0  0  0  0  0  0  0  0  0  0  0
   50.8047   -1.8664   42.4042 C   0  0  0  0  0  0  0  0  0  0  0  0
   50.6926   -1.8725   41.0268 C   0  0  0  0  0  0  0  0  0  0  0  0
   49.4523   -1.9796   40.4273 C   0  0  0  0  0  0  0  0  0  0  0  0
   48.3299   -2.0859   41.2076 C   0  0  0  0  0  0  0  0  0  0  0  0
   48.4342   -2.0902   42.5942 C   0  0  0  0  0  0  0  0  0  0  0  0
   47.2302   -2.2173   43.3738 C   0  0  0  0  0  0  0  0  0  0  0  0
   46.1779   -2.3361   43.9796 C   0  0  0  0  0  0  0  0  0  0  0  0
   44.8928   -2.4877   44.6122 C   0  0  0  0  0  0  0  0  0  0  0  0
   43.9473   -3.4150   44.1822 C   0  0  0  0  0  0  0  0  0  0  0  0
   42.7216   -3.5094   44.8145 C   0  0  0  0  0  0  0  0  0  0  0  0
   42.4562   -2.6574   45.8802 C   0  0  0  0  0  0  0  0  0  0  0  0
   43.3897   -1.7437   46.3146 C   0  0  0  0  0  0  0  0  0  0  0  0
   44.6064   -1.6532   45.6892 C   0  0  0  0  0  0  0  0  0  0  0  0
   45.7814   -0.4945   46.2458 Cl  0  0  0  0  0  0  0  0  0  0  0  0
   41.7329   -4.4801   44.3632 C   0  0  0  0  0  0  0  0  0  0  0  0
   41.4162   -5.7502   44.9013 C   0  0  0  0  0  0  0  0  0  0  0  0
   40.4439   -6.2010   44.1044 C   0  0  0  0  0  0  0  0  0  0  0  0
   40.1330   -5.3290   43.1085 N   0  0  0  0  0  0  0  0  0  0  0  0
   40.9589   -4.2767   43.3178 N   0  0  0  0  0  0  0  0  0  0  0  0
   39.2309   -5.4459   41.9504 C   0  0  0  0  0  0  0  0  0  0  0  0
   38.2889   -4.2776   41.5732 C   0  0  0  0  0  0  0  0  0  0  0  0
   37.5084   -4.5294   40.2621 C   0  0  0  0  0  0  0  0  0  0  0  0
   36.3599   -5.4944   40.4153 N   0  3  0  0  0  0  0  0  0  0  0  0
   35.2703   -5.2237   39.4057 C   0  0  0  0  0  0  0  0  0  0  0  0
   35.7013   -5.6539   37.9889 C   0  0  0  0  0  0  0  0  0  0  0  0
   36.0955   -7.1427   37.9907 C   0  0  0  0  0  0  0  0  0  0  0  0
   37.2366   -7.3818   38.9982 C   0  0  0  0  0  0  0  0  0  0  0  0
   36.7973   -6.9397   40.4093 C   0  0  0  0  0  0  0  0  0  0  0  0
   39.7747   -7.5429   44.3382 C   0  0  0  0  0  0  0  0  0  0  0  0
   40.6309   -8.5266   45.1675 C   0  0  0  0  0  0  0  0  0  0  0  0
   41.4282   -7.8998   46.2440 N   0  0  0  0  0  0  0  0  0  0  0  0
   41.9683   -6.5317   46.0857 C   0  0  0  0  0  0  0  0  0  0  0  0
   41.7483   -8.5737   47.3674 C   0  0  0  0  0  0  0  0  0  0  0  0
   42.3575   -8.0731   48.3035 O   0  0  0  0  0  0  0  0  0  0  0  0
   41.4331  -10.0076   47.6079 C   0  0  0  0  0  0  0  0  0  0  0  0
   40.9624  -10.7459   46.7550 O   0  0  0  0  0  0  0  0  0  0  0  0
   41.7377  -10.4189   48.8469 N   0  0  0  0  0  0  0  0  0  0  0  0
   49.3046   -1.9896   38.9117 C   0  0  0  0  0  0  0  0  0  0  0  0
   50.0050   -3.1514   38.2500 N   0  3  0  0  0  0  0  0  0  0  0  0
   49.1796   -4.4140   38.2712 C   0  0  0  0  0  0  0  0  0  0  0  0
   49.9476   -5.5592   37.5831 C   0  0  0  0  0  0  0  0  0  0  0  0
   50.3293   -5.1756   36.2484 O   0  0  0  0  0  0  0  0  0  0  0  0
   51.1982   -4.0275   36.2368 C   0  0  0  0  0  0  0  0  0  0  0  0
   50.4927   -2.8092   36.8646 C   0  0  0  0  0  0  0  0  0  0  0  0
   52.1182   -1.7516   40.0372 Cl  0  0  0  0  0  0  0  0  0  0  0  0
   49.7694   -1.9766   44.1865 H   0  0  0  0  0  0  0  0  0  0  0  0
   51.7054   -1.7808   42.8300 H   0  0  0  0  0  0  0  0  0  0  0  0
   47.4305   -2.1607   40.7769 H   0  0  0  0  0  0  0  0  0  0  0  0
   44.1563   -4.0165   43.4112 H   0  0  0  0  0  0  0  0  0  0  0  0
   41.5698   -2.7093   46.3403 H   0  0  0  0  0  0  0  0  0  0  0  0
   43.1801   -1.1449   47.0877 H   0  0  0  0  0  0  0  0  0  0  0  0
   38.6510   -6.2437   42.1158 H   0  0  0  0  0  0  0  0  0  0  0  0
   39.8614   -5.4861   41.1753 H   0  0  0  0  0  0  0  0  0  0  0  0
   38.8358   -3.4471   41.4669 H   0  0  0  0  0  0  0  0  0  0  0  0
   37.6161   -4.1872   42.3075 H   0  0  0  0  0  0  0  0  0  0  0  0
   38.1426   -4.8953   39.5810 H   0  0  0  0  0  0  0  0  0  0  0  0
   37.1162   -3.6528   39.9831 H   0  0  0  0  0  0  0  0  0  0  0  0
   35.9914   -5.3333   41.2331 H   0  0  0  0  0  0  0  0  0  0  0  0
   35.0621   -4.2456   39.4030 H   0  0  0  0  0  0  0  0  0  0  0  0
   34.4622   -5.7534   39.6634 H   0  0  0  0  0  0  0  0  0  0  0  0
   36.4820   -5.1018   37.6962 H   0  0  0  0  0  0  0  0  0  0  0  0
   34.9383   -5.5172   37.3570 H   0  0  0  0  0  0  0  0  0  0  0  0
   36.3971   -7.4086   37.0750 H   0  0  0  0  0  0  0  0  0  0  0  0
   35.3034   -7.6926   38.2558 H   0  0  0  0  0  0  0  0  0  0  0  0
   38.0412   -6.8573   38.7198 H   0  0  0  0  0  0  0  0  0  0  0  0
   37.4593   -8.3565   39.0158 H   0  0  0  0  0  0  0  0  0  0  0  0
   36.0365   -7.5138   40.7120 H   0  0  0  0  0  0  0  0  0  0  0  0
   37.5766   -7.0379   41.0282 H   0  0  0  0  0  0  0  0  0  0  0  0
   39.5812   -7.9599   43.4501 H   0  0  0  0  0  0  0  0  0  0  0  0
   38.9421   -7.3671   44.8634 H   0  0  0  0  0  0  0  0  0  0  0  0
   41.2579   -8.9959   44.5458 H   0  0  0  0  0  0  0  0  0  0  0  0
   39.9890   -9.1463   45.6191 H   0  0  0  0  0  0  0  0  0  0  0  0
   41.7651   -6.0178   46.9191 H   0  0  0  0  0  0  0  0  0  0  0  0
   42.9477   -6.6394   45.9146 H   0  0  0  0  0  0  0  0  0  0  0  0
   42.0724   -9.8592   49.4368 H   0  0  0  0  0  0  0  0  0  0  0  0
   41.6031  -11.2589   49.0718 H   0  0  0  0  0  0  0  0  0  0  0  0
   49.6845   -1.1387   38.5490 H   0  0  0  0  0  0  0  0  0  0  0  0
   48.3293   -2.0806   38.7105 H   0  0  0  0  0  0  0  0  0  0  0  0
   50.7568   -3.3166   38.7402 H   0  0  0  0  0  0  0  0  0  0  0  0
   48.3169   -4.2553   37.7910 H   0  0  0  0  0  0  0  0  0  0  0  0
   48.9952   -4.6688   39.2205 H   0  0  0  0  0  0  0  0  0  0  0  0
   49.3648   -6.3708   37.5416 H   0  0  0  0  0  0  0  0  0  0  0  0
   50.7731   -5.7595   38.1106 H   0  0  0  0  0  0  0  0  0  0  0  0
   51.4513   -3.8141   35.2932 H   0  0  0  0  0  0  0  0  0  0  0  0
   52.0167   -4.2365   36.7719 H   0  0  0  0  0  0  0  0  0  0  0  0
   51.1334   -2.0433   36.9175 H   0  0  0  0  0  0  0  0  0  0  0  0
   49.7106   -2.5556   36.2954 H   0  0  0  0  0  0  0  0  0  0  0  0
  1  2  2  0  0  0  0
  1  6  1  0  0  0  0
  1 47  1  0  0  0  0
  2  3  1  0  0  0  0
  2 48  1  0  0  0  0
  3  4  2  0  0  0  0
  3 46  1  0  0  0  0
  4  5  1  0  0  0  0
  4 39  1  0  0  0  0
  5  6  2  0  0  0  0
  5 49  1  0  0  0  0
  6  7  1  0  0  0  0
  7  8  3  0  0  0  0
  8  9  1  0  0  0  0
  9 10  2  0  0  0  0
  9 14  1  0  0  0  0
 10 11  1  0  0  0  0
 10 50  1  0  0  0  0
 11 12  2  0  0  0  0
 11 16  1  0  0  0  0
 12 13  1  0  0  0  0
 12 51  1  0  0  0  0
 13 14  2  0  0  0  0
 13 52  1  0  0  0  0
 14 15  1  0  0  0  0
 16 17  1  0  0  0  0
 16 20  2  0  0  0  0
 17 18  2  0  0  0  0
 17 33  1  0  0  0  0
 18 19  1  0  0  0  0
 18 30  1  0  0  0  0
 19 20  1  0  0  0  0
 19 21  1  0  0  0  0
 21 22  1  0  0  0  0
 21 53  1  0  0  0  0
 21 54  1  0  0  0  0
 22 23  1  0  0  0  0
 22 55  1  0  0  0  0
 22 56  1  0  0  0  0
 23 24  1  0  0  0  0
 23 57  1  0  0  0  0
 23 58  1  0  0  0  0
 24 25  1  0  0  0  0
 24 29  1  0  0  0  0
 24 59  1  0  0  0  0
 25 26  1  0  0  0  0
 25 60  1  0  0  0  0
 25 61  1  0  0  0  0
 26 27  1  0  0  0  0
 26 62  1  0  0  0  0
 26 63  1  0  0  0  0
 27 28  1  0  0  0  0
 27 64  1  0  0  0  0
 27 65  1  0  0  0  0
 28 29  1  0  0  0  0
 28 66  1  0  0  0  0
 28 67  1  0  0  0  0
 29 68  1  0  0  0  0
 29 69  1  0  0  0  0
 30 31  1  0  0  0  0
 30 70  1  0  0  0  0
 30 71  1  0  0  0  0
 31 32  1  0  0  0  0
 31 72  1  0  0  0  0
 31 73  1  0  0  0  0
 32 33  1  0  0  0  0
 32 34  1  0  0  0  0
 33 74  1  0  0  0  0
 33 75  1  0  0  0  0
 34 35  2  0  0  0  0
 34 36  1  0  0  0  0
 36 37  2  0  0  0  0
 36 38  1  0  0  0  0
 38 76  1  0  0  0  0
 38 77  1  0  0  0  0
 39 40  1  0  0  0  0
 39 78  1  0  0  0  0
 39 79  1  0  0  0  0
 40 41  1  0  0  0  0
 40 45  1  0  0  0  0
 40 80  1  0  0  0  0
 41 42  1  0  0  0  0
 41 81  1  0  0  0  0
 41 82  1  0  0  0  0
 42 43  1  0  0  0  0
 42 83  1  0  0  0  0
 42 84  1  0  0  0  0
 43 44  1  0  0  0  0
 44 45  1  0  0  0  0
 44 85  1  0  0  0  0
 44 86  1  0  0  0  0
 45 87  1  0  0  0  0
 45 88  1  0  0  0  0
M  CHG  2  24   1  40   1
M  END
