CatS_445:1_D
 OpenBabel12041818463D

 84 89  0  0  0  0  0  0  0  0999 V2000
   40.4614  -10.6827   46.0897 C   0  0  0  0  0  0  0  0  0  0  0  0
   39.7441   -9.2842   46.9919 S   0  0  0  0  0  0  0  0  0  0  0  0
   40.2036   -9.3428   48.3414 O   0  0  0  0  0  0  0  0  0  0  0  0
   38.3317   -9.3219   46.7924 O   0  0  0  0  0  0  0  0  0  0  0  0
   40.2920   -7.8891   46.3409 N   0  0  0  0  0  0  0  0  0  0  0  0
   41.7089   -7.6032   46.6538 C   0  0  0  0  0  0  0  0  0  0  0  0
   42.1297   -6.1416   46.3623 C   0  0  0  0  0  0  0  0  0  0  0  0
   41.6013   -5.6574   45.0224 C   0  0  0  0  0  0  0  0  0  0  0  0
   40.6560   -6.3524   44.3837 C   0  0  0  0  0  0  0  0  0  0  0  0
   40.4064   -5.5787   43.2317 C   0  0  0  0  0  0  0  0  0  0  0  0
   41.1733   -4.5136   43.2689 N   0  0  0  0  0  0  0  0  0  0  0  0
   41.9697   -4.5249   44.3578 N   0  0  0  0  0  0  0  0  0  0  0  0
   43.0073   -3.5073   44.5905 C   0  0  0  0  0  0  0  0  0  0  0  0
   43.1713   -2.6472   45.8593 C   0  0  0  0  0  0  0  0  0  0  0  0
   42.1879   -1.4537   45.8912 C   0  0  0  0  0  0  0  0  0  0  0  0
   42.0229   -0.7689   47.2298 N   0  3  0  0  0  0  0  0  0  0  0  0
   42.2177   -1.7082   48.3988 C   0  0  0  0  0  0  0  0  0  0  0  0
   42.0982   -0.9705   49.7467 C   0  0  0  0  0  0  0  0  0  0  0  0
   40.7308   -0.2705   49.8359 C   0  0  0  0  0  0  0  0  0  0  0  0
   40.5826    0.7249   48.6702 C   0  0  0  0  0  0  0  0  0  0  0  0
   40.7181   -0.0139   47.3218 C   0  0  0  0  0  0  0  0  0  0  0  0
   39.5185   -5.8443   42.1201 C   0  0  0  0  0  0  0  0  0  0  0  0
   38.2929   -5.2070   41.9923 C   0  0  0  0  0  0  0  0  0  0  0  0
   37.4883   -5.4605   40.9022 C   0  0  0  0  0  0  0  0  0  0  0  0
   37.8973   -6.3230   39.9119 C   0  0  0  0  0  0  0  0  0  0  0  0
   39.1344   -6.9526   40.0284 C   0  0  0  0  0  0  0  0  0  0  0  0
   39.9257   -6.7220   41.1429 C   0  0  0  0  0  0  0  0  0  0  0  0
   39.7041   -7.8417   39.0534 C   0  0  0  0  0  0  0  0  0  0  0  0
   40.3061   -8.5453   38.2631 C   0  0  0  0  0  0  0  0  0  0  0  0
   41.1353   -9.3304   37.3904 C   0  0  0  0  0  0  0  0  0  0  0  0
   42.0735   -8.6524   36.6228 C   0  0  0  0  0  0  0  0  0  0  0  0
   42.9111   -9.3563   35.8045 C   0  0  0  0  0  0  0  0  0  0  0  0
   42.8209  -10.7308   35.7394 C   0  0  0  0  0  0  0  0  0  0  0  0
   41.8797  -11.4218   36.4905 C   0  0  0  0  0  0  0  0  0  0  0  0
   41.0409  -10.7142   37.3170 C   0  0  0  0  0  0  0  0  0  0  0  0
   41.7062  -12.9393   36.4936 C   0  0  0  0  0  0  0  0  0  0  0  0
   40.9231  -13.5042   35.3345 N   0  3  0  0  0  0  0  0  0  0  0  0
   39.4312  -13.5168   35.5436 C   0  0  0  0  0  0  0  0  0  0  0  0
   38.6211  -13.5828   34.2380 C   0  0  0  0  0  0  0  0  0  0  0  0
   38.6520  -12.2837   35.0552 C   0  0  0  0  0  0  0  0  0  0  0  0
   43.9335  -11.5469   34.6871 Cl  0  0  0  0  0  0  0  0  0  0  0  0
   36.8755   -6.6058   38.5322 Cl  0  0  0  0  0  0  0  0  0  0  0  0
   40.0656   -7.6615   44.8946 C   0  0  0  0  0  0  0  0  0  0  0  0
   41.0557  -10.3328   45.3655 H   0  0  0  0  0  0  0  0  0  0  0  0
   40.9936  -11.2520   46.7164 H   0  0  0  0  0  0  0  0  0  0  0  0
   39.7306  -11.2355   45.6890 H   0  0  0  0  0  0  0  0  0  0  0  0
   42.2832   -8.2142   46.1089 H   0  0  0  0  0  0  0  0  0  0  0  0
   41.8253   -7.7484   47.6363 H   0  0  0  0  0  0  0  0  0  0  0  0
   43.1281   -6.0856   46.3584 H   0  0  0  0  0  0  0  0  0  0  0  0
   41.7417   -5.5589   47.0763 H   0  0  0  0  0  0  0  0  0  0  0  0
   42.9063   -2.8536   43.8406 H   0  0  0  0  0  0  0  0  0  0  0  0
   43.8060   -4.1012   44.6877 H   0  0  0  0  0  0  0  0  0  0  0  0
   44.1073   -2.2968   45.8931 H   0  0  0  0  0  0  0  0  0  0  0  0
   42.9721   -3.2271   46.6493 H   0  0  0  0  0  0  0  0  0  0  0  0
   41.2904   -1.7868   45.6021 H   0  0  0  0  0  0  0  0  0  0  0  0
   42.5802   -0.7640   45.2827 H   0  0  0  0  0  0  0  0  0  0  0  0
   42.6796   -0.1402   47.2898 H   0  0  0  0  0  0  0  0  0  0  0  0
   43.1240   -2.1257   48.3339 H   0  0  0  0  0  0  0  0  0  0  0  0
   41.5020   -2.4057   48.3614 H   0  0  0  0  0  0  0  0  0  0  0  0
   42.8279   -0.2909   49.8210 H   0  0  0  0  0  0  0  0  0  0  0  0
   42.1802   -1.6305   50.4935 H   0  0  0  0  0  0  0  0  0  0  0  0
   40.6619    0.2186   50.7054 H   0  0  0  0  0  0  0  0  0  0  0  0
   40.0036   -0.9547   49.7811 H   0  0  0  0  0  0  0  0  0  0  0  0
   41.2928    1.4256   48.7393 H   0  0  0  0  0  0  0  0  0  0  0  0
   39.6803    1.1532   48.7183 H   0  0  0  0  0  0  0  0  0  0  0  0
   39.9605   -0.6594   47.2251 H   0  0  0  0  0  0  0  0  0  0  0  0
   40.6991    0.6676   46.5901 H   0  0  0  0  0  0  0  0  0  0  0  0
   37.9921   -4.5611   42.6939 H   0  0  0  0  0  0  0  0  0  0  0  0
   36.5973   -5.0123   40.8305 H   0  0  0  0  0  0  0  0  0  0  0  0
   40.8001   -7.1980   41.2372 H   0  0  0  0  0  0  0  0  0  0  0  0
   42.1357   -7.6554   36.6689 H   0  0  0  0  0  0  0  0  0  0  0  0
   43.5907   -8.8740   35.2518 H   0  0  0  0  0  0  0  0  0  0  0  0
   40.3600  -11.1972   37.8676 H   0  0  0  0  0  0  0  0  0  0  0  0
   41.2382  -13.1957   37.3393 H   0  0  0  0  0  0  0  0  0  0  0  0
   42.6269  -13.3215   36.4142 H   0  0  0  0  0  0  0  0  0  0  0  0
   41.1133  -13.0326   34.5793 H   0  0  0  0  0  0  0  0  0  0  0  0
   41.2235  -14.3435   35.1461 H   0  0  0  0  0  0  0  0  0  0  0  0
   39.4596  -14.0232   36.4054 H   0  0  0  0  0  0  0  0  0  0  0  0
   37.7846  -14.1290   34.1926 H   0  0  0  0  0  0  0  0  0  0  0  0
   38.8266  -13.8262   33.2901 H   0  0  0  0  0  0  0  0  0  0  0  0
   39.1424  -11.4835   34.7100 H   0  0  0  0  0  0  0  0  0  0  0  0
   37.9589  -11.6822   35.4526 H   0  0  0  0  0  0  0  0  0  0  0  0
   39.0802   -7.6546   44.7246 H   0  0  0  0  0  0  0  0  0  0  0  0
   40.5279   -8.4011   44.4053 H   0  0  0  0  0  0  0  0  0  0  0  0
  1  2  1  0  0  0  0
  1 44  1  0  0  0  0
  1 45  1  0  0  0  0
  1 46  1  0  0  0  0
  2  3  2  0  0  0  0
  2  4  2  0  0  0  0
  2  5  1  0  0  0  0
  5  6  1  0  0  0  0
  5 43  1  0  0  0  0
  6  7  1  0  0  0  0
  6 47  1  0  0  0  0
  6 48  1  0  0  0  0
  7  8  1  0  0  0  0
  7 49  1  0  0  0  0
  7 50  1  0  0  0  0
  8  9  2  0  0  0  0
  8 12  1  0  0  0  0
  9 10  1  0  0  0  0
  9 43  1  0  0  0  0
 10 11  2  0  0  0  0
 10 22  1  0  0  0  0
 11 12  1  0  0  0  0
 12 13  1  0  0  0  0
 13 14  1  0  0  0  0
 13 51  1  0  0  0  0
 13 52  1  0  0  0  0
 14 15  1  0  0  0  0
 14 53  1  0  0  0  0
 14 54  1  0  0  0  0
 15 16  1  0  0  0  0
 15 55  1  0  0  0  0
 15 56  1  0  0  0  0
 16 17  1  0  0  0  0
 16 21  1  0  0  0  0
 16 57  1  0  0  0  0
 17 18  1  0  0  0  0
 17 58  1  0  0  0  0
 17 59  1  0  0  0  0
 18 19  1  0  0  0  0
 18 60  1  0  0  0  0
 18 61  1  0  0  0  0
 19 20  1  0  0  0  0
 19 62  1  0  0  0  0
 19 63  1  0  0  0  0
 20 21  1  0  0  0  0
 20 64  1  0  0  0  0
 20 65  1  0  0  0  0
 21 66  1  0  0  0  0
 21 67  1  0  0  0  0
 22 23  2  0  0  0  0
 22 27  1  0  0  0  0
 23 24  1  0  0  0  0
 23 68  1  0  0  0  0
 24 25  2  0  0  0  0
 24 69  1  0  0  0  0
 25 26  1  0  0  0  0
 25 42  1  0  0  0  0
 26 27  2  0  0  0  0
 26 28  1  0  0  0  0
 27 70  1  0  0  0  0
 28 29  3  0  0  0  0
 29 30  1  0  0  0  0
 30 31  2  0  0  0  0
 30 35  1  0  0  0  0
 31 32  1  0  0  0  0
 31 71  1  0  0  0  0
 32 33  2  0  0  0  0
 32 72  1  0  0  0  0
 33 34  1  0  0  0  0
 33 41  1  0  0  0  0
 34 35  2  0  0  0  0
 34 36  1  0  0  0  0
 35 73  1  0  0  0  0
 36 37  1  0  0  0  0
 36 74  1  0  0  0  0
 36 75  1  0  0  0  0
 37 38  1  0  0  0  0
 37 76  1  0  0  0  0
 37 77  1  0  0  0  0
 38 39  1  0  0  0  0
 38 40  1  0  0  0  0
 38 78  1  0  0  0  0
 39 40  1  0  0  0  0
 39 79  1  0  0  0  0
 39 80  1  0  0  0  0
 40 81  1  0  0  0  0
 40 82  1  0  0  0  0
 43 83  1  0  0  0  0
 43 84  1  0  0  0  0
M  CHG  2  16   1  37   1
M  END
