CatS_391:1_D
 OpenBabel12041818463D

 83 88  0  0  1  0  0  0  0  0999 V2000
   40.6320    0.1611   49.5255 C   0  0  0  0  0  0  0  0  0  0  0  0
   41.0395    0.5702   47.8046 S   0  0  0  0  0  0  0  0  0  0  0  0
   40.0464   -0.0149   46.9600 O   0  0  0  0  0  0  0  0  0  0  0  0
   41.1869    1.9893   47.7250 O   0  0  0  0  0  0  0  0  0  0  0  0
   42.4817   -0.0845   47.3970 N   0  0  0  0  0  0  0  0  0  0  0  0
   43.6948    0.4404   48.0639 C   0  0  0  0  0  0  0  0  0  0  0  0
   44.9945    0.0123   47.3410 C   0  0  0  0  0  0  0  0  0  0  0  0
   44.9835   -1.4729   47.0344 C   0  0  0  0  0  0  0  0  0  0  0  0
   43.8592   -2.1880   47.0814 C   0  0  0  0  0  0  0  0  0  0  0  0
   44.2885   -3.4937   46.7421 C   0  0  0  0  0  0  0  0  0  0  0  0
   45.5824   -3.4634   46.5010 N   0  0  0  0  0  0  0  0  0  0  0  0
   46.0651   -2.2124   46.6821 N   0  0  0  0  0  0  0  0  0  0  0  0
   47.4771   -1.8235   46.5657 C   0  0  0  0  0  0  0  0  0  0  0  0
   47.8798   -1.1057   45.2641 C   0  0  0  0  0  0  0  0  0  0  0  0
   47.1606   -1.7079   44.0380 C   0  0  0  0  0  0  0  0  0  0  0  0
   45.9669   -0.8912   43.6063 N   0  3  0  0  0  0  0  0  0  0  0  0
   46.1785   -0.1876   42.2870 C   0  0  0  0  0  0  0  0  0  0  0  0
   46.0694   -1.1948   41.1259 C   0  0  0  0  0  0  0  0  0  0  0  0
   44.8115   -1.8936   41.1790 O   0  0  0  0  0  0  0  0  0  0  0  0
   44.6516   -2.6391   42.4010 C   0  0  0  0  0  0  0  0  0  0  0  0
   44.6914   -1.6958   43.6197 C   0  0  0  0  0  0  0  0  0  0  0  0
   43.5023   -4.7121   46.6754 C   0  0  0  0  0  0  0  0  0  0  0  0
   43.5098   -5.6375   47.7112 C   0  0  0  0  0  0  0  0  0  0  0  0
   42.7458   -6.7825   47.6374 C   0  0  0  0  0  0  0  0  0  0  0  0
   41.9503   -7.0146   46.5415 C   0  0  0  0  0  0  0  0  0  0  0  0
   41.9270   -6.0910   45.4999 C   0  0  0  0  0  0  0  0  0  0  0  0
   42.7110   -4.9474   45.5719 C   0  0  0  0  0  0  0  0  0  0  0  0
   41.1002   -6.3074   44.3419 C   0  0  0  0  0  0  0  0  0  0  0  0
   40.3854   -6.4781   43.3683 C   0  0  0  0  0  0  0  0  0  0  0  0
   39.5285   -6.6707   42.2273 C   0  0  0  0  0  0  0  0  0  0  0  0
   39.1815   -7.9583   41.8353 C   0  0  0  0  0  0  0  0  0  0  0  0
   38.3628   -8.1461   40.7519 C   0  0  0  0  0  0  0  0  0  0  0  0
   37.8764   -7.0642   40.0468 C   0  0  0  0  0  0  0  0  0  0  0  0
   38.2203   -5.7771   40.4296 C   0  0  0  0  0  0  0  0  0  0  0  0
   39.0397   -5.5814   41.5135 C   0  0  0  0  0  0  0  0  0  0  0  0
   37.6918   -4.5559   39.6861 C   0  0  0  0  0  0  0  0  0  0  0  0
   37.1718   -4.9146   38.3169 N   0  3  0  0  0  0  0  0  0  0  0  0
   36.2350   -6.0922   38.3106 C   0  0  2  0  0  0  0  0  0  0  0  0
   36.9803   -7.3343   38.8445 C   0  0  0  0  0  0  0  0  0  0  0  0
   35.7035   -6.3597   36.8923 C   0  0  0  0  0  0  0  0  0  0  0  0
   35.3256   -7.7366   36.7523 O   0  0  0  0  0  0  0  0  0  0  0  0
   40.9789   -8.4539   46.4445 Cl  0  0  0  0  0  0  0  0  0  0  0  0
   42.5118   -1.5675   47.4445 C   0  0  0  0  0  0  0  0  0  0  0  0
   35.4526   -5.8903   38.8997 H   0  0  0  0  0  0  0  0  0  0  0  0
   41.3691   -0.3936   49.9116 H   0  0  0  0  0  0  0  0  0  0  0  0
   40.5290    1.0016   50.0573 H   0  0  0  0  0  0  0  0  0  0  0  0
   39.7732   -0.3505   49.5557 H   0  0  0  0  0  0  0  0  0  0  0  0
   43.7195    0.0999   49.0038 H   0  0  0  0  0  0  0  0  0  0  0  0
   43.6483    1.4391   48.0409 H   0  0  0  0  0  0  0  0  0  0  0  0
   45.7790    0.2224   47.9244 H   0  0  0  0  0  0  0  0  0  0  0  0
   45.0580    0.5135   46.4780 H   0  0  0  0  0  0  0  0  0  0  0  0
   48.0307   -2.6526   46.6435 H   0  0  0  0  0  0  0  0  0  0  0  0
   47.6319   -1.1576   47.2955 H   0  0  0  0  0  0  0  0  0  0  0  0
   48.8681   -1.1899   45.1376 H   0  0  0  0  0  0  0  0  0  0  0  0
   47.6131   -0.1450   45.3411 H   0  0  0  0  0  0  0  0  0  0  0  0
   46.8539   -2.6319   44.2667 H   0  0  0  0  0  0  0  0  0  0  0  0
   47.8114   -1.7154   43.2788 H   0  0  0  0  0  0  0  0  0  0  0  0
   45.8590   -0.2396   44.2341 H   0  0  0  0  0  0  0  0  0  0  0  0
   47.0848    0.2350   42.2776 H   0  0  0  0  0  0  0  0  0  0  0  0
   45.4766    0.5159   42.1753 H   0  0  0  0  0  0  0  0  0  0  0  0
   46.8180   -1.8548   41.1897 H   0  0  0  0  0  0  0  0  0  0  0  0
   46.1243   -0.6968   40.2605 H   0  0  0  0  0  0  0  0  0  0  0  0
   45.3889   -3.3103   42.4774 H   0  0  0  0  0  0  0  0  0  0  0  0
   43.7662   -3.1034   42.3824 H   0  0  0  0  0  0  0  0  0  0  0  0
   43.9068   -1.0765   43.5882 H   0  0  0  0  0  0  0  0  0  0  0  0
   44.6556   -2.2411   44.4572 H   0  0  0  0  0  0  0  0  0  0  0  0
   44.0754   -5.4713   48.5190 H   0  0  0  0  0  0  0  0  0  0  0  0
   42.7707   -7.4468   48.3844 H   0  0  0  0  0  0  0  0  0  0  0  0
   42.7014   -4.2902   44.8183 H   0  0  0  0  0  0  0  0  0  0  0  0
   39.5288   -8.7468   42.3427 H   0  0  0  0  0  0  0  0  0  0  0  0
   38.1162   -9.0735   40.4707 H   0  0  0  0  0  0  0  0  0  0  0  0
   39.2860   -4.6528   41.7909 H   0  0  0  0  0  0  0  0  0  0  0  0
   38.4308   -3.8891   39.5899 H   0  0  0  0  0  0  0  0  0  0  0  0
   36.9334   -4.1749   40.2149 H   0  0  0  0  0  0  0  0  0  0  0  0
   36.7643   -4.1897   37.9452 H   0  0  0  0  0  0  0  0  0  0  0  0
   37.8712   -5.0890   37.7597 H   0  0  0  0  0  0  0  0  0  0  0  0
   36.3016   -8.0203   39.1068 H   0  0  0  0  0  0  0  0  0  0  0  0
   37.5799   -7.6439   38.1065 H   0  0  0  0  0  0  0  0  0  0  0  0
   36.4157   -6.1412   36.2251 H   0  0  0  0  0  0  0  0  0  0  0  0
   34.9002   -5.7859   36.7331 H   0  0  0  0  0  0  0  0  0  0  0  0
   34.5807   -7.8457   36.0851 H   0  0  0  0  0  0  0  0  0  0  0  0
   41.8237   -1.9154   46.8078 H   0  0  0  0  0  0  0  0  0  0  0  0
   42.3298   -1.8242   48.3937 H   0  0  0  0  0  0  0  0  0  0  0  0
  1  2  1  0  0  0  0
  1 45  1  0  0  0  0
  1 46  1  0  0  0  0
  1 47  1  0  0  0  0
  2  3  2  0  0  0  0
  2  4  2  0  0  0  0
  2  5  1  0  0  0  0
  5  6  1  0  0  0  0
  5 43  1  0  0  0  0
  6  7  1  0  0  0  0
  6 48  1  0  0  0  0
  6 49  1  0  0  0  0
  7  8  1  0  0  0  0
  7 50  1  0  0  0  0
  7 51  1  0  0  0  0
  8  9  2  0  0  0  0
  8 12  1  0  0  0  0
  9 10  1  0  0  0  0
  9 43  1  0  0  0  0
 10 11  2  0  0  0  0
 10 22  1  0  0  0  0
 11 12  1  0  0  0  0
 12 13  1  0  0  0  0
 13 14  1  0  0  0  0
 13 52  1  0  0  0  0
 13 53  1  0  0  0  0
 14 15  1  0  0  0  0
 14 54  1  0  0  0  0
 14 55  1  0  0  0  0
 15 16  1  0  0  0  0
 15 56  1  0  0  0  0
 15 57  1  0  0  0  0
 16 17  1  0  0  0  0
 16 21  1  0  0  0  0
 16 58  1  0  0  0  0
 17 18  1  0  0  0  0
 17 59  1  0  0  0  0
 17 60  1  0  0  0  0
 18 19  1  0  0  0  0
 18 61  1  0  0  0  0
 18 62  1  0  0  0  0
 19 20  1  0  0  0  0
 20 21  1  0  0  0  0
 20 63  1  0  0  0  0
 20 64  1  0  0  0  0
 21 65  1  0  0  0  0
 21 66  1  0  0  0  0
 22 23  2  0  0  0  0
 22 27  1  0  0  0  0
 23 24  1  0  0  0  0
 23 67  1  0  0  0  0
 24 25  2  0  0  0  0
 24 68  1  0  0  0  0
 25 26  1  0  0  0  0
 25 42  1  0  0  0  0
 26 27  2  0  0  0  0
 26 28  1  0  0  0  0
 27 69  1  0  0  0  0
 28 29  3  0  0  0  0
 29 30  1  0  0  0  0
 30 31  2  0  0  0  0
 30 35  1  0  0  0  0
 31 32  1  0  0  0  0
 31 70  1  0  0  0  0
 32 33  2  0  0  0  0
 32 71  1  0  0  0  0
 33 34  1  0  0  0  0
 33 39  1  0  0  0  0
 34 35  2  0  0  0  0
 34 36  1  0  0  0  0
 35 72  1  0  0  0  0
 36 37  1  0  0  0  0
 36 73  1  0  0  0  0
 36 74  1  0  0  0  0
 37 38  1  0  0  0  0
 37 75  1  0  0  0  0
 37 76  1  0  0  0  0
 38 39  1  0  0  0  0
 38 40  1  0  0  0  0
 38 44  1  1  0  0  0
 39 77  1  0  0  0  0
 39 78  1  0  0  0  0
 40 41  1  0  0  0  0
 40 79  1  0  0  0  0
 40 80  1  0  0  0  0
 41 81  1  0  0  0  0
 43 82  1  0  0  0  0
 43 83  1  0  0  0  0
M  CHG  2  16   1  37   1
M  END
