CatS_183:1_D
 OpenBabel12041818463D

 95 99  0  0  1  0  0  0  0  0999 V2000
   40.8914   -4.4087   51.6808 C   0  0  0  0  0  0  0  0  0  0  0  0
   40.9578   -3.4422   50.4887 C   0  0  2  0  0  0  0  0  0  0  0  0
   42.4303   -3.1399   50.1509 C   0  0  0  0  0  0  0  0  0  0  0  0
   42.5042   -2.1413   48.9779 C   0  0  0  0  0  0  0  0  0  0  0  0
   41.7574   -0.8704   49.3045 N   0  3  2  0  0  0  0  0  0  0  0  0
   40.3182   -1.1393   49.6730 C   0  0  0  0  0  0  0  0  0  0  0  0
   40.2223   -2.1364   50.8458 C   0  0  0  0  0  0  0  0  0  0  0  0
   41.8743    0.1745   48.2233 C   0  0  0  0  0  0  0  0  0  0  0  0
   41.4973   -0.3417   46.8164 C   0  0  0  0  0  0  0  0  0  0  0  0
   42.8269    0.0368   45.6443 S   0  0  0  0  0  0  0  0  0  0  0  0
   43.2935   -1.4834   44.8028 C   0  0  0  0  0  0  0  0  0  0  0  0
   42.5107   -2.5949   45.0231 C   0  0  0  0  0  0  0  0  0  0  0  0
   42.8213   -3.8079   44.4325 C   0  0  0  0  0  0  0  0  0  0  0  0
   43.9390   -3.8789   43.6233 C   0  0  0  0  0  0  0  0  0  0  0  0
   44.7184   -2.7663   43.4078 C   0  0  0  0  0  0  0  0  0  0  0  0
   44.4139   -1.5503   43.9854 C   0  0  0  0  0  0  0  0  0  0  0  0
   45.3466   -0.3788   43.6799 C   0  0  0  0  0  0  0  0  0  0  0  0
   46.3963   -0.3245   44.5906 F   0  0  0  0  0  0  0  0  0  0  0  0
   44.7164    0.8618   43.7226 F   0  0  0  0  0  0  0  0  0  0  0  0
   45.9016   -0.5041   42.4113 F   0  0  0  0  0  0  0  0  0  0  0  0
   41.9803   -4.9604   44.7057 C   0  0  0  0  0  0  0  0  0  0  0  0
   40.8438   -5.4290   44.0098 C   0  0  0  0  0  0  0  0  0  0  0  0
   40.5049   -6.5344   44.6751 C   0  0  0  0  0  0  0  0  0  0  0  0
   41.3153   -6.7853   45.7329 N   0  0  0  0  0  0  0  0  0  0  0  0
   42.2220   -5.7823   45.7088 N   0  0  0  0  0  0  0  0  0  0  0  0
   41.2935   -7.8790   46.7131 C   0  0  0  0  0  0  0  0  0  0  0  0
   41.1921   -9.2565   46.0356 C   0  0  2  0  0  0  0  0  0  0  0  0
   40.6610  -10.2961   47.0425 C   0  0  0  0  0  0  0  0  0  0  0  0
   39.8180  -11.3698   46.4021 N   0  3  0  0  0  0  0  0  0  0  0  0
   39.2844  -10.9272   45.0624 C   0  0  0  0  0  0  0  0  0  0  0  0
   38.3268  -11.9790   44.4600 C   0  0  0  0  0  0  0  0  0  0  0  0
   38.9476  -13.3934   44.3893 C   0  0  0  0  0  0  0  0  0  0  0  0
   39.5741  -13.7942   45.7446 C   0  0  0  0  0  0  0  0  0  0  0  0
   40.5081  -12.7110   46.3274 C   0  0  0  0  0  0  0  0  0  0  0  0
   39.9774  -13.4964   43.2464 C   0  0  0  0  0  0  0  0  0  0  0  0
   37.8261  -14.3952   44.0640 C   0  0  0  0  0  0  0  0  0  0  0  0
   42.4758   -9.6592   45.5363 O   0  0  0  0  0  0  0  0  0  0  0  0
   39.3473   -7.4034   44.2266 C   0  0  0  0  0  0  0  0  0  0  0  0
   39.0787   -7.1573   42.7234 C   0  0  0  0  0  0  0  0  0  0  0  0
   38.8535   -5.7198   42.4426 N   0  0  0  0  0  0  0  0  0  0  0  0
   40.0802   -4.9504   42.7782 C   0  0  0  0  0  0  0  0  0  0  0  0
   38.1279   -5.3306   41.0269 S   0  0  0  0  0  0  0  0  0  0  0  0
   36.8606   -5.9865   40.9932 O   0  0  0  0  0  0  0  0  0  0  0  0
   38.1479   -3.9097   40.8933 O   0  0  0  0  0  0  0  0  0  0  0  0
   39.1346   -6.0137   39.6869 C   0  0  0  0  0  0  0  0  0  0  0  0
   40.5564   -9.1950   45.2662 H   0  0  0  0  0  0  0  0  0  0  0  0
   40.0906   -4.9986   51.5775 H   0  0  0  0  0  0  0  0  0  0  0  0
   41.7201   -4.9677   51.7091 H   0  0  0  0  0  0  0  0  0  0  0  0
   40.8204   -3.8888   52.5321 H   0  0  0  0  0  0  0  0  0  0  0  0
   40.5190   -3.8604   49.6933 H   0  0  0  0  0  0  0  0  0  0  0  0
   42.8950   -3.9883   49.8976 H   0  0  0  0  0  0  0  0  0  0  0  0
   42.8765   -2.7398   50.9514 H   0  0  0  0  0  0  0  0  0  0  0  0
   42.1023   -2.5602   48.1635 H   0  0  0  0  0  0  0  0  0  0  0  0
   43.4637   -1.9133   48.8125 H   0  0  0  0  0  0  0  0  0  0  0  0
   42.1461   -0.5189   50.0503 H   0  0  0  0  0  0  0  0  0  0  0  0
   39.8416   -1.5176   48.8795 H   0  0  0  0  0  0  0  0  0  0  0  0
   39.8965   -0.2776   49.9552 H   0  0  0  0  0  0  0  0  0  0  0  0
   40.6372   -1.7333   51.6614 H   0  0  0  0  0  0  0  0  0  0  0  0
   39.2596   -2.3403   51.0237 H   0  0  0  0  0  0  0  0  0  0  0  0
   42.8190    0.5017   48.1994 H   0  0  0  0  0  0  0  0  0  0  0  0
   41.2264    0.9020   48.4492 H   0  0  0  0  0  0  0  0  0  0  0  0
   40.6513    0.0985   46.5157 H   0  0  0  0  0  0  0  0  0  0  0  0
   41.3647   -1.3322   46.8537 H   0  0  0  0  0  0  0  0  0  0  0  0
   41.7087   -2.5250   45.6164 H   0  0  0  0  0  0  0  0  0  0  0  0
   44.1833   -4.7466   43.1905 H   0  0  0  0  0  0  0  0  0  0  0  0
   45.5238   -2.8401   42.8196 H   0  0  0  0  0  0  0  0  0  0  0  0
   40.5078   -7.7557   47.3194 H   0  0  0  0  0  0  0  0  0  0  0  0
   42.1508   -7.8508   47.2271 H   0  0  0  0  0  0  0  0  0  0  0  0
   40.1087   -9.8224   47.7285 H   0  0  0  0  0  0  0  0  0  0  0  0
   41.4555  -10.7478   47.4485 H   0  0  0  0  0  0  0  0  0  0  0  0
   39.0916  -11.4775   46.9426 H   0  0  0  0  0  0  0  0  0  0  0  0
   40.0511  -10.7854   44.4362 H   0  0  0  0  0  0  0  0  0  0  0  0
   38.7736  -10.0775   45.1931 H   0  0  0  0  0  0  0  0  0  0  0  0
   38.0769  -11.6917   43.5354 H   0  0  0  0  0  0  0  0  0  0  0  0
   37.5289  -12.0344   45.0603 H   0  0  0  0  0  0  0  0  0  0  0  0
   40.0996  -14.6355   45.6170 H   0  0  0  0  0  0  0  0  0  0  0  0
   38.8236  -13.9181   46.3937 H   0  0  0  0  0  0  0  0  0  0  0  0
   40.7929  -12.9835   47.2464 H   0  0  0  0  0  0  0  0  0  0  0  0
   41.3009  -12.6234   45.7242 H   0  0  0  0  0  0  0  0  0  0  0  0
   39.6643  -14.1798   42.5867 H   0  0  0  0  0  0  0  0  0  0  0  0
   40.0701  -12.6095   42.7942 H   0  0  0  0  0  0  0  0  0  0  0  0
   40.8658  -13.7673   43.6171 H   0  0  0  0  0  0  0  0  0  0  0  0
   38.0418  -14.8572   43.2038 H   0  0  0  0  0  0  0  0  0  0  0  0
   37.7515  -15.0692   44.7989 H   0  0  0  0  0  0  0  0  0  0  0  0
   36.9560  -13.9100   43.9778 H   0  0  0  0  0  0  0  0  0  0  0  0
   42.3845  -10.2657   44.7390 H   0  0  0  0  0  0  0  0  0  0  0  0
   38.5307   -7.1750   44.7566 H   0  0  0  0  0  0  0  0  0  0  0  0
   39.5742   -8.3663   44.3726 H   0  0  0  0  0  0  0  0  0  0  0  0
   38.2697   -7.6760   42.4468 H   0  0  0  0  0  0  0  0  0  0  0  0
   39.8817   -7.4554   42.2074 H   0  0  0  0  0  0  0  0  0  0  0  0
   40.6990   -4.9963   41.9941 H   0  0  0  0  0  0  0  0  0  0  0  0
   39.7699   -4.0242   42.9925 H   0  0  0  0  0  0  0  0  0  0  0  0
   39.4943   -5.2620   39.1341 H   0  0  0  0  0  0  0  0  0  0  0  0
   39.8921   -6.5428   40.0693 H   0  0  0  0  0  0  0  0  0  0  0  0
   38.5737   -6.6139   39.1167 H   0  0  0  0  0  0  0  0  0  0  0  0
  1  2  1  0  0  0  0
  1 47  1  0  0  0  0
  1 48  1  0  0  0  0
  1 49  1  0  0  0  0
  2  3  1  0  0  0  0
  2  7  1  0  0  0  0
  2 50  1  6  0  0  0
  3  4  1  0  0  0  0
  3 51  1  0  0  0  0
  3 52  1  0  0  0  0
  4  5  1  0  0  0  0
  4 53  1  0  0  0  0
  4 54  1  0  0  0  0
  5  6  1  0  0  0  0
  5  8  1  0  0  0  0
  5 55  1  1  0  0  0
  6  7  1  0  0  0  0
  6 56  1  0  0  0  0
  6 57  1  0  0  0  0
  7 58  1  0  0  0  0
  7 59  1  0  0  0  0
  8  9  1  0  0  0  0
  8 60  1  0  0  0  0
  8 61  1  0  0  0  0
  9 10  1  0  0  0  0
  9 62  1  0  0  0  0
  9 63  1  0  0  0  0
 10 11  1  0  0  0  0
 11 12  2  0  0  0  0
 11 16  1  0  0  0  0
 12 13  1  0  0  0  0
 12 64  1  0  0  0  0
 13 14  2  0  0  0  0
 13 21  1  0  0  0  0
 14 15  1  0  0  0  0
 14 65  1  0  0  0  0
 15 16  2  0  0  0  0
 15 66  1  0  0  0  0
 16 17  1  0  0  0  0
 17 18  1  0  0  0  0
 17 19  1  0  0  0  0
 17 20  1  0  0  0  0
 21 22  1  0  0  0  0
 21 25  2  0  0  0  0
 22 23  2  0  0  0  0
 22 41  1  0  0  0  0
 23 24  1  0  0  0  0
 23 38  1  0  0  0  0
 24 25  1  0  0  0  0
 24 26  1  0  0  0  0
 26 27  1  0  0  0  0
 26 67  1  0  0  0  0
 26 68  1  0  0  0  0
 27 28  1  0  0  0  0
 27 37  1  0  0  0  0
 27 46  1  6  0  0  0
 28 29  1  0  0  0  0
 28 69  1  0  0  0  0
 28 70  1  0  0  0  0
 29 30  1  0  0  0  0
 29 34  1  0  0  0  0
 29 71  1  0  0  0  0
 30 31  1  0  0  0  0
 30 72  1  0  0  0  0
 30 73  1  0  0  0  0
 31 32  1  0  0  0  0
 31 74  1  0  0  0  0
 31 75  1  0  0  0  0
 32 33  1  0  0  0  0
 32 35  1  0  0  0  0
 32 36  1  0  0  0  0
 33 34  1  0  0  0  0
 33 76  1  0  0  0  0
 33 77  1  0  0  0  0
 34 78  1  0  0  0  0
 34 79  1  0  0  0  0
 35 80  1  0  0  0  0
 35 81  1  0  0  0  0
 35 82  1  0  0  0  0
 36 83  1  0  0  0  0
 36 84  1  0  0  0  0
 36 85  1  0  0  0  0
 37 86  1  0  0  0  0
 38 39  1  0  0  0  0
 38 87  1  0  0  0  0
 38 88  1  0  0  0  0
 39 40  1  0  0  0  0
 39 89  1  0  0  0  0
 39 90  1  0  0  0  0
 40 41  1  0  0  0  0
 40 42  1  0  0  0  0
 41 91  1  0  0  0  0
 41 92  1  0  0  0  0
 42 43  2  0  0  0  0
 42 44  2  0  0  0  0
 42 45  1  0  0  0  0
 45 93  1  0  0  0  0
 45 94  1  0  0  0  0
 45 95  1  0  0  0  0
M  CHG  2   5   1  29   1
M  END
