CatS_38:1_D
 OpenBabel12041818463D

 75 79  0  0  0  0  0  0  0  0999 V2000
   42.1665   -8.0116   48.9324 C   0  0  0  0  0  0  0  0  0  0  0  0
   42.6600   -8.7267   47.3385 S   0  0  0  0  0  0  0  0  0  0  0  0
   42.2058  -10.0794   47.3125 O   0  0  0  0  0  0  0  0  0  0  0  0
   44.0608   -8.5173   47.1719 O   0  0  0  0  0  0  0  0  0  0  0  0
   41.9249   -7.9170   46.1179 N   0  0  0  0  0  0  0  0  0  0  0  0
   40.4634   -8.1137   45.9989 C   0  0  0  0  0  0  0  0  0  0  0  0
   39.9299   -7.8182   44.5802 C   0  0  0  0  0  0  0  0  0  0  0  0
   40.4410   -6.4759   44.0972 C   0  0  0  0  0  0  0  0  0  0  0  0
   41.5044   -5.8832   44.6457 C   0  0  0  0  0  0  0  0  0  0  0  0
   41.6137   -4.6706   43.9214 C   0  0  0  0  0  0  0  0  0  0  0  0
   40.6482   -4.6344   43.0287 N   0  0  0  0  0  0  0  0  0  0  0  0
   39.8875   -5.7451   43.0971 N   0  0  0  0  0  0  0  0  0  0  0  0
   38.6940   -5.9889   42.2752 C   0  0  0  0  0  0  0  0  0  0  0  0
   38.3085   -4.7232   41.4870 C   0  0  0  0  0  0  0  0  0  0  0  0
   38.2234   -5.0081   39.9705 C   0  0  0  0  0  0  0  0  0  0  0  0
   36.8674   -4.6979   39.3826 N   0  3  0  0  0  0  0  0  0  0  0  0
   35.7433   -5.1086   40.3015 C   0  0  0  0  0  0  0  0  0  0  0  0
   35.5449   -6.6369   40.2514 C   0  0  0  0  0  0  0  0  0  0  0  0
   35.3334   -7.0767   38.8963 O   0  0  0  0  0  0  0  0  0  0  0  0
   36.4523   -6.7711   38.0431 C   0  0  0  0  0  0  0  0  0  0  0  0
   36.6887   -5.2495   37.9880 C   0  0  0  0  0  0  0  0  0  0  0  0
   42.5798   -3.5915   44.0427 C   0  0  0  0  0  0  0  0  0  0  0  0
   42.3277   -2.6168   44.9956 C   0  0  0  0  0  0  0  0  0  0  0  0
   43.1978   -1.5687   45.1826 C   0  0  0  0  0  0  0  0  0  0  0  0
   44.3327   -1.4697   44.4186 C   0  0  0  0  0  0  0  0  0  0  0  0
   44.6073   -2.4364   43.4528 C   0  0  0  0  0  0  0  0  0  0  0  0
   43.7283   -3.5038   43.2750 C   0  0  0  0  0  0  0  0  0  0  0  0
   45.8008   -2.2733   42.6599 C   0  0  0  0  0  0  0  0  0  0  0  0
   46.8088   -2.2007   41.9748 C   0  0  0  0  0  0  0  0  0  0  0  0
   47.9924   -2.1808   41.1541 C   0  0  0  0  0  0  0  0  0  0  0  0
   47.9398   -2.4224   39.7837 C   0  0  0  0  0  0  0  0  0  0  0  0
   49.0885   -2.3787   39.0388 C   0  0  0  0  0  0  0  0  0  0  0  0
   50.3122   -2.0952   39.6371 C   0  0  0  0  0  0  0  0  0  0  0  0
   50.3579   -1.8626   41.0043 C   0  0  0  0  0  0  0  0  0  0  0  0
   49.2163   -1.9022   41.7561 C   0  0  0  0  0  0  0  0  0  0  0  0
   51.4938   -2.0444   38.8918 N   0  0  0  0  0  0  0  0  0  0  0  0
   51.4528   -1.8916   37.4285 C   0  0  0  0  0  0  0  0  0  0  0  0
   51.4450   -3.2013   36.7691 C   0  0  0  0  0  0  0  0  0  0  0  0
   51.4382   -4.2156   36.2574 N   0  0  0  0  0  0  0  0  0  0  0  0
   45.4151   -0.1277   44.6637 Cl  0  0  0  0  0  0  0  0  0  0  0  0
   42.2723   -6.5048   45.8102 C   0  0  0  0  0  0  0  0  0  0  0  0
   41.5354   -7.2536   48.7677 H   0  0  0  0  0  0  0  0  0  0  0  0
   41.7170   -8.7089   49.4909 H   0  0  0  0  0  0  0  0  0  0  0  0
   42.9754   -7.6784   49.4168 H   0  0  0  0  0  0  0  0  0  0  0  0
   40.0046   -7.5067   46.6477 H   0  0  0  0  0  0  0  0  0  0  0  0
   40.2737   -9.0759   46.1946 H   0  0  0  0  0  0  0  0  0  0  0  0
   38.9301   -7.8070   44.5975 H   0  0  0  0  0  0  0  0  0  0  0  0
   40.2502   -8.5313   43.9566 H   0  0  0  0  0  0  0  0  0  0  0  0
   37.9338   -6.2538   42.8683 H   0  0  0  0  0  0  0  0  0  0  0  0
   38.8955   -6.7220   41.6256 H   0  0  0  0  0  0  0  0  0  0  0  0
   38.9955   -4.0149   41.6495 H   0  0  0  0  0  0  0  0  0  0  0  0
   37.4087   -4.4195   41.8000 H   0  0  0  0  0  0  0  0  0  0  0  0
   38.4263   -5.9749   39.8153 H   0  0  0  0  0  0  0  0  0  0  0  0
   38.8857   -4.4108   39.5183 H   0  0  0  0  0  0  0  0  0  0  0  0
   36.8171   -3.7904   39.3117 H   0  0  0  0  0  0  0  0  0  0  0  0
   34.8993   -4.6540   40.0168 H   0  0  0  0  0  0  0  0  0  0  0  0
   35.9733   -4.8414   41.2374 H   0  0  0  0  0  0  0  0  0  0  0  0
   34.7519   -6.8852   40.8077 H   0  0  0  0  0  0  0  0  0  0  0  0
   36.3671   -7.0803   40.6083 H   0  0  0  0  0  0  0  0  0  0  0  0
   36.2677   -7.1116   37.1211 H   0  0  0  0  0  0  0  0  0  0  0  0
   37.2706   -7.2112   38.4128 H   0  0  0  0  0  0  0  0  0  0  0  0
   37.5090   -5.0595   37.4485 H   0  0  0  0  0  0  0  0  0  0  0  0
   35.8952   -4.8126   37.5640 H   0  0  0  0  0  0  0  0  0  0  0  0
   41.5011   -2.6768   45.5552 H   0  0  0  0  0  0  0  0  0  0  0  0
   43.0029   -0.8767   45.8776 H   0  0  0  0  0  0  0  0  0  0  0  0
   43.9277   -4.2067   42.5922 H   0  0  0  0  0  0  0  0  0  0  0  0
   47.0652   -2.6273   39.3442 H   0  0  0  0  0  0  0  0  0  0  0  0
   49.0472   -2.5523   38.0549 H   0  0  0  0  0  0  0  0  0  0  0  0
   51.2339   -1.6640   41.4441 H   0  0  0  0  0  0  0  0  0  0  0  0
   49.2608   -1.7310   42.7402 H   0  0  0  0  0  0  0  0  0  0  0  0
   52.2190   -1.7609   39.3057 H   0  0  0  0  0  0  0  0  0  0  0  0
   52.2550   -1.3753   37.1286 H   0  0  0  0  0  0  0  0  0  0  0  0
   50.6159   -1.4038   37.1803 H   0  0  0  0  0  0  0  0  0  0  0  0
   43.2484   -6.4647   45.5965 H   0  0  0  0  0  0  0  0  0  0  0  0
   42.0200   -5.9753   46.6202 H   0  0  0  0  0  0  0  0  0  0  0  0
  1  2  1  0  0  0  0
  1 42  1  0  0  0  0
  1 43  1  0  0  0  0
  1 44  1  0  0  0  0
  2  3  2  0  0  0  0
  2  4  2  0  0  0  0
  2  5  1  0  0  0  0
  5  6  1  0  0  0  0
  5 41  1  0  0  0  0
  6  7  1  0  0  0  0
  6 45  1  0  0  0  0
  6 46  1  0  0  0  0
  7  8  1  0  0  0  0
  7 47  1  0  0  0  0
  7 48  1  0  0  0  0
  8  9  2  0  0  0  0
  8 12  1  0  0  0  0
  9 10  1  0  0  0  0
  9 41  1  0  0  0  0
 10 11  2  0  0  0  0
 10 22  1  0  0  0  0
 11 12  1  0  0  0  0
 12 13  1  0  0  0  0
 13 14  1  0  0  0  0
 13 49  1  0  0  0  0
 13 50  1  0  0  0  0
 14 15  1  0  0  0  0
 14 51  1  0  0  0  0
 14 52  1  0  0  0  0
 15 16  1  0  0  0  0
 15 53  1  0  0  0  0
 15 54  1  0  0  0  0
 16 17  1  0  0  0  0
 16 21  1  0  0  0  0
 16 55  1  0  0  0  0
 17 18  1  0  0  0  0
 17 56  1  0  0  0  0
 17 57  1  0  0  0  0
 18 19  1  0  0  0  0
 18 58  1  0  0  0  0
 18 59  1  0  0  0  0
 19 20  1  0  0  0  0
 20 21  1  0  0  0  0
 20 60  1  0  0  0  0
 20 61  1  0  0  0  0
 21 62  1  0  0  0  0
 21 63  1  0  0  0  0
 22 23  2  0  0  0  0
 22 27  1  0  0  0  0
 23 24  1  0  0  0  0
 23 64  1  0  0  0  0
 24 25  2  0  0  0  0
 24 65  1  0  0  0  0
 25 26  1  0  0  0  0
 25 40  1  0  0  0  0
 26 27  2  0  0  0  0
 26 28  1  0  0  0  0
 27 66  1  0  0  0  0
 28 29  3  0  0  0  0
 29 30  1  0  0  0  0
 30 31  2  0  0  0  0
 30 35  1  0  0  0  0
 31 32  1  0  0  0  0
 31 67  1  0  0  0  0
 32 33  2  0  0  0  0
 32 68  1  0  0  0  0
 33 34  1  0  0  0  0
 33 36  1  0  0  0  0
 34 35  2  0  0  0  0
 34 69  1  0  0  0  0
 35 70  1  0  0  0  0
 36 37  1  0  0  0  0
 36 71  1  0  0  0  0
 37 38  1  0  0  0  0
 37 72  1  0  0  0  0
 37 73  1  0  0  0  0
 38 39  3  0  0  0  0
 41 74  1  0  0  0  0
 41 75  1  0  0  0  0
M  CHG  1  16   1
M  END
