CatS_292:1_D
 OpenBabel12041818463D

 85 90  0  0  0  0  0  0  0  0999 V2000
   48.4828   -3.8286   38.7403 C   0  0  0  0  0  0  0  0  0  0  0  0
   47.5799   -3.6576   39.7562 C   0  0  0  0  0  0  0  0  0  0  0  0
   47.5482   -2.4631   40.4656 C   0  0  0  0  0  0  0  0  0  0  0  0
   48.4439   -1.4498   40.1409 C   0  0  0  0  0  0  0  0  0  0  0  0
   49.3363   -1.6325   39.1134 C   0  0  0  0  0  0  0  0  0  0  0  0
   49.3640   -2.8207   38.4065 C   0  0  0  0  0  0  0  0  0  0  0  0
   50.2937   -3.0918   37.2302 C   0  0  0  0  0  0  0  0  0  0  0  0
   51.0666   -1.9175   36.6837 N   0  3  0  0  0  0  0  0  0  0  0  0
   52.5687   -1.9574   36.8437 C   0  0  0  0  0  0  0  0  0  0  0  0
   53.2778   -0.9629   35.9406 C   0  0  0  0  0  0  0  0  0  0  0  0
   53.6816    0.2502   36.4539 C   0  0  0  0  0  0  0  0  0  0  0  0
   54.3222    1.1642   35.6505 C   0  0  0  0  0  0  0  0  0  0  0  0
   54.5602    0.8675   34.3273 C   0  0  0  0  0  0  0  0  0  0  0  0
   54.1550   -0.3428   33.8097 C   0  0  0  0  0  0  0  0  0  0  0  0
   53.5141   -1.2558   34.6156 C   0  0  0  0  0  0  0  0  0  0  0  0
   55.3721    2.0219   33.3125 Cl  0  0  0  0  0  0  0  0  0  0  0  0
   46.5546   -2.3113   41.4968 C   0  0  0  0  0  0  0  0  0  0  0  0
   45.7173   -2.2619   42.3834 C   0  0  0  0  0  0  0  0  0  0  0  0
   44.7397   -2.3079   43.4406 C   0  0  0  0  0  0  0  0  0  0  0  0
   43.7410   -3.2659   43.3274 C   0  0  0  0  0  0  0  0  0  0  0  0
   42.7398   -3.3758   44.2698 C   0  0  0  0  0  0  0  0  0  0  0  0
   42.7641   -2.5115   45.3546 C   0  0  0  0  0  0  0  0  0  0  0  0
   43.7554   -1.5613   45.4831 C   0  0  0  0  0  0  0  0  0  0  0  0
   44.7442   -1.4461   44.5340 C   0  0  0  0  0  0  0  0  0  0  0  0
   45.9851   -0.2385   44.7003 Cl  0  0  0  0  0  0  0  0  0  0  0  0
   41.6788   -4.3618   44.1214 C   0  0  0  0  0  0  0  0  0  0  0  0
   41.5049   -5.5910   44.8040 C   0  0  0  0  0  0  0  0  0  0  0  0
   40.3799   -6.0840   44.2812 C   0  0  0  0  0  0  0  0  0  0  0  0
   39.8428   -5.2739   43.3367 N   0  0  0  0  0  0  0  0  0  0  0  0
   40.6852   -4.2173   43.2679 N   0  0  0  0  0  0  0  0  0  0  0  0
   38.6518   -5.4683   42.4984 C   0  0  0  0  0  0  0  0  0  0  0  0
   38.3167   -4.3470   41.4991 C   0  0  0  0  0  0  0  0  0  0  0  0
   37.9090   -4.9162   40.1258 C   0  0  0  0  0  0  0  0  0  0  0  0
   36.6554   -5.7452   40.2141 N   0  3  0  0  0  0  0  0  0  0  0  0
   36.8533   -7.2237   40.0074 C   0  0  0  0  0  0  0  0  0  0  0  0
   36.3026   -7.5063   38.5941 C   0  0  0  0  0  0  0  0  0  0  0  0
   35.8172   -6.1553   38.0386 C   0  0  0  0  0  0  0  0  0  0  0  0
   35.5783   -5.2841   39.2792 C   0  0  0  0  0  0  0  0  0  0  0  0
   39.7857   -7.4089   44.7218 C   0  0  0  0  0  0  0  0  0  0  0  0
   40.8686   -8.3416   45.3036 C   0  0  0  0  0  0  0  0  0  0  0  0
   41.8309   -7.6733   46.2072 N   0  0  0  0  0  0  0  0  0  0  0  0
   42.3123   -6.3062   45.8812 C   0  0  0  0  0  0  0  0  0  0  0  0
   42.2984   -8.3556   47.2845 C   0  0  0  0  0  0  0  0  0  0  0  0
   41.8490   -9.4650   47.5911 O   0  0  0  0  0  0  0  0  0  0  0  0
   43.2854   -7.8070   48.0234 N   0  0  0  0  0  0  0  0  0  0  0  0
   48.5034   -4.6919   38.2359 H   0  0  0  0  0  0  0  0  0  0  0  0
   46.9431   -4.3931   39.9876 H   0  0  0  0  0  0  0  0  0  0  0  0
   48.4380   -0.5914   40.6539 H   0  0  0  0  0  0  0  0  0  0  0  0
   49.9725   -0.8991   38.8738 H   0  0  0  0  0  0  0  0  0  0  0  0
   49.7396   -3.4642   36.4857 H   0  0  0  0  0  0  0  0  0  0  0  0
   50.9893   -3.7151   37.5875 H   0  0  0  0  0  0  0  0  0  0  0  0
   50.8819   -1.8643   35.7928 H   0  0  0  0  0  0  0  0  0  0  0  0
   50.7246   -1.1407   37.0124 H   0  0  0  0  0  0  0  0  0  0  0  0
   52.8913   -2.8785   36.6258 H   0  0  0  0  0  0  0  0  0  0  0  0
   52.7795   -1.7101   37.7894 H   0  0  0  0  0  0  0  0  0  0  0  0
   53.5079    0.4670   37.4147 H   0  0  0  0  0  0  0  0  0  0  0  0
   54.6150    2.0432   36.0270 H   0  0  0  0  0  0  0  0  0  0  0  0
   54.3265   -0.5581   32.8484 H   0  0  0  0  0  0  0  0  0  0  0  0
   53.2192   -2.1337   34.2385 H   0  0  0  0  0  0  0  0  0  0  0  0
   43.7478   -3.8896   42.5456 H   0  0  0  0  0  0  0  0  0  0  0  0
   42.0522   -2.5784   46.0537 H   0  0  0  0  0  0  0  0  0  0  0  0
   43.7553   -0.9499   46.2744 H   0  0  0  0  0  0  0  0  0  0  0  0
   37.8662   -5.5789   43.1073 H   0  0  0  0  0  0  0  0  0  0  0  0
   38.8570   -6.2676   41.9336 H   0  0  0  0  0  0  0  0  0  0  0  0
   39.1189   -3.7609   41.3854 H   0  0  0  0  0  0  0  0  0  0  0  0
   37.5452   -3.8244   41.8618 H   0  0  0  0  0  0  0  0  0  0  0  0
   38.6528   -5.4858   39.7760 H   0  0  0  0  0  0  0  0  0  0  0  0
   37.7293   -4.1476   39.5118 H   0  0  0  0  0  0  0  0  0  0  0  0
   36.3240   -5.6374   41.0570 H   0  0  0  0  0  0  0  0  0  0  0  0
   36.3498   -7.7469   40.6948 H   0  0  0  0  0  0  0  0  0  0  0  0
   37.8133   -7.4901   40.0955 H   0  0  0  0  0  0  0  0  0  0  0  0
   35.5445   -8.1568   38.6404 H   0  0  0  0  0  0  0  0  0  0  0  0
   37.0041   -7.9081   38.0055 H   0  0  0  0  0  0  0  0  0  0  0  0
   34.9714   -6.2702   37.5175 H   0  0  0  0  0  0  0  0  0  0  0  0
   36.4799   -5.7447   37.4124 H   0  0  0  0  0  0  0  0  0  0  0  0
   35.6753   -4.3121   39.0653 H   0  0  0  0  0  0  0  0  0  0  0  0
   34.6571   -5.3759   39.6573 H   0  0  0  0  0  0  0  0  0  0  0  0
   39.3575   -7.8534   43.9350 H   0  0  0  0  0  0  0  0  0  0  0  0
   39.1080   -7.2297   45.4350 H   0  0  0  0  0  0  0  0  0  0  0  0
   41.3780   -8.7441   44.5430 H   0  0  0  0  0  0  0  0  0  0  0  0
   40.3898   -9.0251   45.8545 H   0  0  0  0  0  0  0  0  0  0  0  0
   42.2809   -5.7545   46.7148 H   0  0  0  0  0  0  0  0  0  0  0  0
   43.2384   -6.4114   45.5191 H   0  0  0  0  0  0  0  0  0  0  0  0
   43.6338   -7.0302   47.8118 H   0  0  0  0  0  0  0  0  0  0  0  0
   43.5914   -8.2398   48.7260 H   0  0  0  0  0  0  0  0  0  0  0  0
  1  2  2  0  0  0  0
  1  6  1  0  0  0  0
  1 46  1  0  0  0  0
  2  3  1  0  0  0  0
  2 47  1  0  0  0  0
  3  4  2  0  0  0  0
  3 17  1  0  0  0  0
  4  5  1  0  0  0  0
  4 48  1  0  0  0  0
  5  6  2  0  0  0  0
  5 49  1  0  0  0  0
  6  7  1  0  0  0  0
  7  8  1  0  0  0  0
  7 50  1  0  0  0  0
  7 51  1  0  0  0  0
  8  9  1  0  0  0  0
  8 52  1  0  0  0  0
  8 53  1  0  0  0  0
  9 10  1  0  0  0  0
  9 54  1  0  0  0  0
  9 55  1  0  0  0  0
 10 11  2  0  0  0  0
 10 15  1  0  0  0  0
 11 12  1  0  0  0  0
 11 56  1  0  0  0  0
 12 13  2  0  0  0  0
 12 57  1  0  0  0  0
 13 14  1  0  0  0  0
 13 16  1  0  0  0  0
 14 15  2  0  0  0  0
 14 58  1  0  0  0  0
 15 59  1  0  0  0  0
 17 18  3  0  0  0  0
 18 19  1  0  0  0  0
 19 20  2  0  0  0  0
 19 24  1  0  0  0  0
 20 21  1  0  0  0  0
 20 60  1  0  0  0  0
 21 22  2  0  0  0  0
 21 26  1  0  0  0  0
 22 23  1  0  0  0  0
 22 61  1  0  0  0  0
 23 24  2  0  0  0  0
 23 62  1  0  0  0  0
 24 25  1  0  0  0  0
 26 27  1  0  0  0  0
 26 30  2  0  0  0  0
 27 28  2  0  0  0  0
 27 42  1  0  0  0  0
 28 29  1  0  0  0  0
 28 39  1  0  0  0  0
 29 30  1  0  0  0  0
 29 31  1  0  0  0  0
 31 32  1  0  0  0  0
 31 63  1  0  0  0  0
 31 64  1  0  0  0  0
 32 33  1  0  0  0  0
 32 65  1  0  0  0  0
 32 66  1  0  0  0  0
 33 34  1  0  0  0  0
 33 67  1  0  0  0  0
 33 68  1  0  0  0  0
 34 35  1  0  0  0  0
 34 38  1  0  0  0  0
 34 69  1  0  0  0  0
 35 36  1  0  0  0  0
 35 70  1  0  0  0  0
 35 71  1  0  0  0  0
 36 37  1  0  0  0  0
 36 72  1  0  0  0  0
 36 73  1  0  0  0  0
 37 38  1  0  0  0  0
 37 74  1  0  0  0  0
 37 75  1  0  0  0  0
 38 76  1  0  0  0  0
 38 77  1  0  0  0  0
 39 40  1  0  0  0  0
 39 78  1  0  0  0  0
 39 79  1  0  0  0  0
 40 41  1  0  0  0  0
 40 80  1  0  0  0  0
 40 81  1  0  0  0  0
 41 42  1  0  0  0  0
 41 43  1  0  0  0  0
 42 82  1  0  0  0  0
 42 83  1  0  0  0  0
 43 44  2  0  0  0  0
 43 45  1  0  0  0  0
 45 84  1  0  0  0  0
 45 85  1  0  0  0  0
M  CHG  2   8   1  34   1
M  END
