CatS_19:1_D
 OpenBabel12041818463D

 95 99  0  0  0  0  0  0  0  0999 V2000
   44.3545   -1.8895   41.3676 C   0  0  0  0  0  0  0  0  0  0  0  0
   45.8530   -1.6255   41.1308 C   0  0  0  0  0  0  0  0  0  0  0  0
   46.2312   -2.2616   39.7784 C   0  0  0  0  0  0  0  0  0  0  0  0
   46.0962   -0.1080   41.0199 C   0  0  0  0  0  0  0  0  0  0  0  0
   46.7141   -2.2691   42.1968 N   0  3  0  0  0  0  0  0  0  0  0  0
   48.2107   -2.0527   42.1773 C   0  0  0  0  0  0  0  0  0  0  0  0
   49.0208   -3.0697   43.0088 C   0  0  0  0  0  0  0  0  0  0  0  0
   49.5425   -2.3560   44.5935 S   0  0  0  0  0  0  0  0  0  0  0  0
   48.3271   -2.5765   45.9038 C   0  0  0  0  0  0  0  0  0  0  0  0
   47.0146   -2.2847   45.5937 C   0  0  0  0  0  0  0  0  0  0  0  0
   46.0057   -2.5192   46.5155 C   0  0  0  0  0  0  0  0  0  0  0  0
   46.3504   -2.9995   47.7616 C   0  0  0  0  0  0  0  0  0  0  0  0
   47.6584   -3.2709   48.0720 C   0  0  0  0  0  0  0  0  0  0  0  0
   48.6697   -3.0822   47.1538 C   0  0  0  0  0  0  0  0  0  0  0  0
   50.0619   -3.4787   47.6464 C   0  0  0  0  0  0  0  0  0  0  0  0
   50.0615   -3.9569   48.9543 F   0  0  0  0  0  0  0  0  0  0  0  0
   50.6278   -4.4858   46.8738 F   0  0  0  0  0  0  0  0  0  0  0  0
   50.9220   -2.3886   47.6286 F   0  0  0  0  0  0  0  0  0  0  0  0
   44.5931   -2.3015   46.2605 C   0  0  0  0  0  0  0  0  0  0  0  0
   43.7258   -1.2458   46.6331 C   0  0  0  0  0  0  0  0  0  0  0  0
   42.5566   -1.6002   46.0879 C   0  0  0  0  0  0  0  0  0  0  0  0
   42.6315   -2.7578   45.3761 N   0  0  0  0  0  0  0  0  0  0  0  0
   43.9085   -3.1537   45.5380 N   0  0  0  0  0  0  0  0  0  0  0  0
   41.7119   -3.4064   44.4285 C   0  0  0  0  0  0  0  0  0  0  0  0
   41.8102   -4.8802   43.9922 C   0  0  0  0  0  0  0  0  0  0  0  0
   40.5773   -5.6911   44.4529 C   0  0  0  0  0  0  0  0  0  0  0  0
   39.5552   -5.9508   43.3706 N   0  3  2  0  0  0  0  0  0  0  0  0
   40.0618   -6.8994   42.3114 C   0  0  0  0  0  0  0  0  0  0  0  0
   38.9362   -7.2528   41.3191 C   0  0  0  0  0  0  0  0  0  0  0  0
   38.4050   -5.9634   40.6571 C   0  0  2  0  0  0  0  0  0  0  0  0
   37.8961   -4.9878   41.7371 C   0  0  0  0  0  0  0  0  0  0  0  0
   39.0058   -4.6814   42.7664 C   0  0  0  0  0  0  0  0  0  0  0  0
   37.3307   -6.1527   39.6688 N   0  0  0  0  0  0  0  0  0  0  0  0
   36.4264   -7.3088   39.6283 C   0  0  0  0  0  0  0  0  0  0  0  0
   35.8179   -7.1350   38.2247 C   0  0  0  0  0  0  0  0  0  0  0  0
   35.9443   -5.6402   37.8877 C   0  0  0  0  0  0  0  0  0  0  0  0
   37.0941   -5.2039   38.7555 C   0  0  0  0  0  0  0  0  0  0  0  0
   37.7044   -4.1514   38.6307 O   0  0  0  0  0  0  0  0  0  0  0  0
   41.3050   -0.7628   46.2856 C   0  0  0  0  0  0  0  0  0  0  0  0
   41.5016    0.2800   47.4098 C   0  0  0  0  0  0  0  0  0  0  0  0
   42.7890    0.9920   47.2791 N   0  0  0  0  0  0  0  0  0  0  0  0
   43.9006    0.0264   47.4575 C   0  0  0  0  0  0  0  0  0  0  0  0
   42.9014    2.4378   48.0160 S   0  0  0  0  0  0  0  0  0  0  0  0
   44.1513    3.0062   47.6352 O   0  0  0  0  0  0  0  0  0  0  0  0
   41.7362    3.1893   47.6823 O   0  0  0  0  0  0  0  0  0  0  0  0
   42.9097    2.1602   49.8092 C   0  0  0  0  0  0  0  0  0  0  0  0
   44.2481   -2.4436   42.1934 H   0  0  0  0  0  0  0  0  0  0  0  0
   43.8720   -1.0210   41.4803 H   0  0  0  0  0  0  0  0  0  0  0  0
   43.9702   -2.3759   40.5829 H   0  0  0  0  0  0  0  0  0  0  0  0
   46.9489   -2.9416   39.9277 H   0  0  0  0  0  0  0  0  0  0  0  0
   45.4285   -2.7019   39.3760 H   0  0  0  0  0  0  0  0  0  0  0  0
   46.5612   -1.5537   39.1539 H   0  0  0  0  0  0  0  0  0  0  0  0
   46.7901    0.1602   41.6882 H   0  0  0  0  0  0  0  0  0  0  0  0
   46.4117    0.1172   40.0981 H   0  0  0  0  0  0  0  0  0  0  0  0
   45.2446    0.3836   41.2016 H   0  0  0  0  0  0  0  0  0  0  0  0
   46.3876   -2.0526   43.0191 H   0  0  0  0  0  0  0  0  0  0  0  0
   46.5778   -3.1688   42.1487 H   0  0  0  0  0  0  0  0  0  0  0  0
   48.3989   -1.1367   42.5318 H   0  0  0  0  0  0  0  0  0  0  0  0
   48.5005   -2.1720   41.2277 H   0  0  0  0  0  0  0  0  0  0  0  0
   49.8302   -3.3457   42.4904 H   0  0  0  0  0  0  0  0  0  0  0  0
   48.4382   -3.8606   43.1959 H   0  0  0  0  0  0  0  0  0  0  0  0
   46.7895   -1.9015   44.6979 H   0  0  0  0  0  0  0  0  0  0  0  0
   45.6382   -3.1517   48.4469 H   0  0  0  0  0  0  0  0  0  0  0  0
   47.8838   -3.6131   48.9841 H   0  0  0  0  0  0  0  0  0  0  0  0
   41.7680   -2.8696   43.5866 H   0  0  0  0  0  0  0  0  0  0  0  0
   40.8720   -3.4299   44.9708 H   0  0  0  0  0  0  0  0  0  0  0  0
   42.6345   -5.2837   44.3892 H   0  0  0  0  0  0  0  0  0  0  0  0
   41.8480   -4.9095   42.9934 H   0  0  0  0  0  0  0  0  0  0  0  0
   40.1306   -5.1886   45.1932 H   0  0  0  0  0  0  0  0  0  0  0  0
   40.9181   -6.5864   44.7397 H   0  0  0  0  0  0  0  0  0  0  0  0
   38.8461   -6.3577   43.7719 H   0  0  0  0  0  0  0  0  0  0  0  0
   40.3935   -7.7357   42.7480 H   0  0  0  0  0  0  0  0  0  0  0  0
   40.8055   -6.4567   41.8103 H   0  0  0  0  0  0  0  0  0  0  0  0
   38.1925   -7.7103   41.8065 H   0  0  0  0  0  0  0  0  0  0  0  0
   39.2957   -7.8630   40.6132 H   0  0  0  0  0  0  0  0  0  0  0  0
   39.1899   -5.6002   40.1550 H   0  0  0  0  0  0  0  0  0  0  0  0
   37.1133   -5.3958   42.2069 H   0  0  0  0  0  0  0  0  0  0  0  0
   37.6261   -4.1326   41.2947 H   0  0  0  0  0  0  0  0  0  0  0  0
   39.7473   -4.1868   42.3129 H   0  0  0  0  0  0  0  0  0  0  0  0
   38.6119   -4.1266   43.4992 H   0  0  0  0  0  0  0  0  0  0  0  0
   35.7303   -7.2612   40.3446 H   0  0  0  0  0  0  0  0  0  0  0  0
   36.8693   -8.1916   39.7845 H   0  0  0  0  0  0  0  0  0  0  0  0
   34.8575   -7.4136   38.2241 H   0  0  0  0  0  0  0  0  0  0  0  0
   36.2893   -7.7020   37.5491 H   0  0  0  0  0  0  0  0  0  0  0  0
   35.1068   -5.1446   38.1174 H   0  0  0  0  0  0  0  0  0  0  0  0
   36.0923   -5.4632   36.9147 H   0  0  0  0  0  0  0  0  0  0  0  0
   40.5428   -1.3643   46.5248 H   0  0  0  0  0  0  0  0  0  0  0  0
   41.1124   -0.2756   45.4338 H   0  0  0  0  0  0  0  0  0  0  0  0
   41.4753   -0.1864   48.2940 H   0  0  0  0  0  0  0  0  0  0  0  0
   40.7666    0.9544   47.3398 H   0  0  0  0  0  0  0  0  0  0  0  0
   44.7558    0.4682   47.1865 H   0  0  0  0  0  0  0  0  0  0  0  0
   43.9096   -0.2415   48.4209 H   0  0  0  0  0  0  0  0  0  0  0  0
   42.0984    2.5874   50.2085 H   0  0  0  0  0  0  0  0  0  0  0  0
   42.9013    1.1785   49.9992 H   0  0  0  0  0  0  0  0  0  0  0  0
   43.7339    2.5619   50.2084 H   0  0  0  0  0  0  0  0  0  0  0  0
  1  2  1  0  0  0  0
  1 47  1  0  0  0  0
  1 48  1  0  0  0  0
  1 49  1  0  0  0  0
  2  3  1  0  0  0  0
  2  4  1  0  0  0  0
  2  5  1  0  0  0  0
  3 50  1  0  0  0  0
  3 51  1  0  0  0  0
  3 52  1  0  0  0  0
  4 53  1  0  0  0  0
  4 54  1  0  0  0  0
  4 55  1  0  0  0  0
  5  6  1  0  0  0  0
  5 56  1  0  0  0  0
  5 57  1  0  0  0  0
  6  7  1  0  0  0  0
  6 58  1  0  0  0  0
  6 59  1  0  0  0  0
  7  8  1  0  0  0  0
  7 60  1  0  0  0  0
  7 61  1  0  0  0  0
  8  9  1  0  0  0  0
  9 10  2  0  0  0  0
  9 14  1  0  0  0  0
 10 11  1  0  0  0  0
 10 62  1  0  0  0  0
 11 12  2  0  0  0  0
 11 19  1  0  0  0  0
 12 13  1  0  0  0  0
 12 63  1  0  0  0  0
 13 14  2  0  0  0  0
 13 64  1  0  0  0  0
 14 15  1  0  0  0  0
 15 16  1  0  0  0  0
 15 17  1  0  0  0  0
 15 18  1  0  0  0  0
 19 20  1  0  0  0  0
 19 23  2  0  0  0  0
 20 21  2  0  0  0  0
 20 42  1  0  0  0  0
 21 22  1  0  0  0  0
 21 39  1  0  0  0  0
 22 23  1  0  0  0  0
 22 24  1  0  0  0  0
 24 25  1  0  0  0  0
 24 65  1  0  0  0  0
 24 66  1  0  0  0  0
 25 26  1  0  0  0  0
 25 67  1  0  0  0  0
 25 68  1  0  0  0  0
 26 27  1  0  0  0  0
 26 69  1  0  0  0  0
 26 70  1  0  0  0  0
 27 28  1  0  0  0  0
 27 32  1  0  0  0  0
 27 71  1  1  0  0  0
 28 29  1  0  0  0  0
 28 72  1  0  0  0  0
 28 73  1  0  0  0  0
 29 30  1  0  0  0  0
 29 74  1  0  0  0  0
 29 75  1  0  0  0  0
 30 31  1  0  0  0  0
 30 33  1  0  0  0  0
 30 76  1  6  0  0  0
 31 32  1  0  0  0  0
 31 77  1  0  0  0  0
 31 78  1  0  0  0  0
 32 79  1  0  0  0  0
 32 80  1  0  0  0  0
 33 34  1  0  0  0  0
 33 37  1  0  0  0  0
 34 35  1  0  0  0  0
 34 81  1  0  0  0  0
 34 82  1  0  0  0  0
 35 36  1  0  0  0  0
 35 83  1  0  0  0  0
 35 84  1  0  0  0  0
 36 37  1  0  0  0  0
 36 85  1  0  0  0  0
 36 86  1  0  0  0  0
 37 38  2  0  0  0  0
 39 40  1  0  0  0  0
 39 87  1  0  0  0  0
 39 88  1  0  0  0  0
 40 41  1  0  0  0  0
 40 89  1  0  0  0  0
 40 90  1  0  0  0  0
 41 42  1  0  0  0  0
 41 43  1  0  0  0  0
 42 91  1  0  0  0  0
 42 92  1  0  0  0  0
 43 44  2  0  0  0  0
 43 45  2  0  0  0  0
 43 46  1  0  0  0  0
 46 93  1  0  0  0  0
 46 94  1  0  0  0  0
 46 95  1  0  0  0  0
M  CHG  2   5   1  27   1
M  END
