CatS_177:1_D
 OpenBabel12041818463D

 94 98  0  0  1  0  0  0  0  0999 V2000
   46.0790    1.0753   48.0651 C   0  0  0  0  0  0  0  0  0  0  0  0
   44.4894    1.5048   47.2918 S   0  0  0  0  0  0  0  0  0  0  0  0
   43.5777    1.8819   48.3240 O   0  0  0  0  0  0  0  0  0  0  0  0
   44.7099    2.5371   46.3304 O   0  0  0  0  0  0  0  0  0  0  0  0
   43.8579    0.2208   46.5061 N   0  0  0  0  0  0  0  0  0  0  0  0
   43.4866   -0.9335   47.3488 C   0  0  0  0  0  0  0  0  0  0  0  0
   42.6289   -1.9748   46.5959 C   0  0  0  0  0  0  0  0  0  0  0  0
   43.1212   -2.2347   45.1835 C   0  0  0  0  0  0  0  0  0  0  0  0
   44.0531   -1.4586   44.6240 C   0  0  0  0  0  0  0  0  0  0  0  0
   44.2371   -2.0315   43.3417 C   0  0  0  0  0  0  0  0  0  0  0  0
   43.4152   -3.0543   43.2291 N   0  0  0  0  0  0  0  0  0  0  0  0
   42.6801   -3.2200   44.3560 N   0  0  0  0  0  0  0  0  0  0  0  0
   41.5374   -4.1457   44.4628 C   0  0  0  0  0  0  0  0  0  0  0  0
   41.6782   -5.6750   44.2813 C   0  0  2  0  0  0  0  0  0  0  0  0
   40.3704   -6.4451   44.5778 C   0  0  0  0  0  0  0  0  0  0  0  0
   39.4304   -6.6103   43.4086 N   0  3  2  0  0  0  0  0  0  0  0  0
   40.0140   -7.4512   42.2989 C   0  0  0  0  0  0  0  0  0  0  0  0
   38.9759   -7.7603   41.1927 C   0  0  0  0  0  0  0  0  0  0  0  0
   37.9543   -6.6153   41.0000 C   0  0  1  0  0  0  0  0  0  0  0  0
   38.5607   -5.2636   41.4174 C   0  0  0  0  0  0  0  0  0  0  0  0
   38.9201   -5.2710   42.9190 C   0  0  0  0  0  0  0  0  0  0  0  0
   37.5110   -6.5357   39.6016 N   0  0  0  0  0  0  0  0  0  0  0  0
   36.2253   -6.7663   39.2968 C   0  0  0  0  0  0  0  0  0  0  0  0
   35.3629   -7.1133   40.0915 O   0  0  0  0  0  0  0  0  0  0  0  0
   35.9439   -6.5388   37.8318 C   0  0  0  0  0  0  0  0  0  0  0  0
   36.5551   -5.3110   37.4095 O   0  0  0  0  0  0  0  0  0  0  0  0
   42.7360   -6.1731   45.1135 O   0  0  0  0  0  0  0  0  0  0  0  0
   45.1501   -1.6489   42.2748 C   0  0  0  0  0  0  0  0  0  0  0  0
   45.5878   -0.3418   42.1765 C   0  0  0  0  0  0  0  0  0  0  0  0
   46.4871    0.0261   41.2034 C   0  0  0  0  0  0  0  0  0  0  0  0
   46.9818   -0.8844   40.2906 C   0  0  0  0  0  0  0  0  0  0  0  0
   46.5363   -2.1977   40.3846 C   0  0  0  0  0  0  0  0  0  0  0  0
   45.6370   -2.5692   41.3612 C   0  0  0  0  0  0  0  0  0  0  0  0
   47.1379   -3.4980   39.2918 S   0  0  0  0  0  0  0  0  0  0  0  0
   48.9298   -3.7669   39.4178 C   0  0  0  0  0  0  0  0  0  0  0  0
   49.5055   -3.9135   37.9912 C   0  0  0  0  0  0  0  0  0  0  0  0
   50.4888   -2.8339   37.6043 N   0  3  0  0  0  0  0  0  0  0  0  0
   51.5579   -2.6404   38.6540 C   0  0  0  0  0  0  0  0  0  0  0  0
   52.5122   -1.4854   38.2856 C   0  0  0  0  0  0  0  0  0  0  0  0
   53.1357   -1.7374   36.9001 C   0  0  0  0  0  0  0  0  0  0  0  0
   52.0311   -1.8980   35.8377 C   0  0  0  0  0  0  0  0  0  0  0  0
   51.0792   -3.0471   36.2298 C   0  0  0  0  0  0  0  0  0  0  0  0
   53.9239   -2.8821   36.9398 F   0  0  0  0  0  0  0  0  0  0  0  0
   53.9686   -0.6776   36.5590 F   0  0  0  0  0  0  0  0  0  0  0  0
   47.9823   -0.3287   39.2719 C   0  0  0  0  0  0  0  0  0  0  0  0
   48.0449    1.0637   39.2620 F   0  0  0  0  0  0  0  0  0  0  0  0
   49.2796   -0.7692   39.5121 F   0  0  0  0  0  0  0  0  0  0  0  0
   47.6419   -0.7158   37.9807 F   0  0  0  0  0  0  0  0  0  0  0  0
   44.6642   -0.2669   45.3592 C   0  0  0  0  0  0  0  0  0  0  0  0
   41.8946   -5.8310   43.3175 H   0  0  0  0  0  0  0  0  0  0  0  0
   46.2876    0.1170   47.8698 H   0  0  0  0  0  0  0  0  0  0  0  0
   46.8025    1.6592   47.6969 H   0  0  0  0  0  0  0  0  0  0  0  0
   46.0207    1.2136   49.0537 H   0  0  0  0  0  0  0  0  0  0  0  0
   42.9702   -0.6013   48.1381 H   0  0  0  0  0  0  0  0  0  0  0  0
   44.3333   -1.3875   47.6262 H   0  0  0  0  0  0  0  0  0  0  0  0
   41.6867   -1.6427   46.5521 H   0  0  0  0  0  0  0  0  0  0  0  0
   42.6937   -2.8368   47.0986 H   0  0  0  0  0  0  0  0  0  0  0  0
   40.8714   -3.8443   43.7805 H   0  0  0  0  0  0  0  0  0  0  0  0
   41.3144   -4.0792   45.4354 H   0  0  0  0  0  0  0  0  0  0  0  0
   39.8822   -5.9574   45.3015 H   0  0  0  0  0  0  0  0  0  0  0  0
   40.6506   -7.3703   44.8340 H   0  0  0  0  0  0  0  0  0  0  0  0
   38.7015   -7.0653   43.7116 H   0  0  0  0  0  0  0  0  0  0  0  0
   40.3435   -8.3128   42.6849 H   0  0  0  0  0  0  0  0  0  0  0  0
   40.7609   -6.9334   41.8816 H   0  0  0  0  0  0  0  0  0  0  0  0
   38.4830   -8.5950   41.4381 H   0  0  0  0  0  0  0  0  0  0  0  0
   39.4736   -7.8687   40.3321 H   0  0  0  0  0  0  0  0  0  0  0  0
   37.1664   -6.8164   41.5820 H   0  0  0  0  0  0  0  0  0  0  0  0
   37.8991   -4.5354   41.2385 H   0  0  0  0  0  0  0  0  0  0  0  0
   39.3945   -5.1067   40.8879 H   0  0  0  0  0  0  0  0  0  0  0  0
   39.6265   -4.5822   43.0817 H   0  0  0  0  0  0  0  0  0  0  0  0
   38.0795   -5.0733   43.4233 H   0  0  0  0  0  0  0  0  0  0  0  0
   38.0900   -6.3353   38.9679 H   0  0  0  0  0  0  0  0  0  0  0  0
   34.9560   -6.4896   37.6848 H   0  0  0  0  0  0  0  0  0  0  0  0
   36.3213   -7.2966   37.2996 H   0  0  0  0  0  0  0  0  0  0  0  0
   37.5397   -5.4312   37.2416 H   0  0  0  0  0  0  0  0  0  0  0  0
   42.7255   -5.7352   46.0192 H   0  0  0  0  0  0  0  0  0  0  0  0
   45.2470    0.3437   42.8198 H   0  0  0  0  0  0  0  0  0  0  0  0
   46.7906    0.9777   41.1555 H   0  0  0  0  0  0  0  0  0  0  0  0
   45.3309   -3.5199   41.4110 H   0  0  0  0  0  0  0  0  0  0  0  0
   49.1115   -4.5974   39.9446 H   0  0  0  0  0  0  0  0  0  0  0  0
   49.3605   -2.9930   39.8819 H   0  0  0  0  0  0  0  0  0  0  0  0
   48.7452   -3.8956   37.3418 H   0  0  0  0  0  0  0  0  0  0  0  0
   50.0086   -4.7776   37.9728 H   0  0  0  0  0  0  0  0  0  0  0  0
   50.0213   -2.0525   37.5694 H   0  0  0  0  0  0  0  0  0  0  0  0
   52.0855   -3.4854   38.7416 H   0  0  0  0  0  0  0  0  0  0  0  0
   51.1100   -2.4111   39.5181 H   0  0  0  0  0  0  0  0  0  0  0  0
   53.2375   -1.4219   38.9711 H   0  0  0  0  0  0  0  0  0  0  0  0
   51.9961   -0.6292   38.2606 H   0  0  0  0  0  0  0  0  0  0  0  0
   52.4492   -2.0994   34.9519 H   0  0  0  0  0  0  0  0  0  0  0  0
   51.5081   -1.0476   35.7793 H   0  0  0  0  0  0  0  0  0  0  0  0
   50.3377   -3.1004   35.5610 H   0  0  0  0  0  0  0  0  0  0  0  0
   51.6054   -3.8973   36.2435 H   0  0  0  0  0  0  0  0  0  0  0  0
   45.5658   -0.5343   45.6995 H   0  0  0  0  0  0  0  0  0  0  0  0
   44.7078    0.4836   44.6998 H   0  0  0  0  0  0  0  0  0  0  0  0
  1  2  1  0  0  0  0
  1 51  1  0  0  0  0
  1 52  1  0  0  0  0
  1 53  1  0  0  0  0
  2  3  2  0  0  0  0
  2  4  2  0  0  0  0
  2  5  1  0  0  0  0
  5  6  1  0  0  0  0
  5 49  1  0  0  0  0
  6  7  1  0  0  0  0
  6 54  1  0  0  0  0
  6 55  1  0  0  0  0
  7  8  1  0  0  0  0
  7 56  1  0  0  0  0
  7 57  1  0  0  0  0
  8  9  2  0  0  0  0
  8 12  1  0  0  0  0
  9 10  1  0  0  0  0
  9 49  1  0  0  0  0
 10 11  2  0  0  0  0
 10 28  1  0  0  0  0
 11 12  1  0  0  0  0
 12 13  1  0  0  0  0
 13 14  1  0  0  0  0
 13 58  1  0  0  0  0
 13 59  1  0  0  0  0
 14 15  1  0  0  0  0
 14 27  1  0  0  0  0
 14 50  1  6  0  0  0
 15 16  1  0  0  0  0
 15 60  1  0  0  0  0
 15 61  1  0  0  0  0
 16 17  1  0  0  0  0
 16 21  1  0  0  0  0
 16 62  1  1  0  0  0
 17 18  1  0  0  0  0
 17 63  1  0  0  0  0
 17 64  1  0  0  0  0
 18 19  1  0  0  0  0
 18 65  1  0  0  0  0
 18 66  1  0  0  0  0
 19 20  1  0  0  0  0
 19 22  1  0  0  0  0
 19 67  1  1  0  0  0
 20 21  1  0  0  0  0
 20 68  1  0  0  0  0
 20 69  1  0  0  0  0
 21 70  1  0  0  0  0
 21 71  1  0  0  0  0
 22 23  1  0  0  0  0
 22 72  1  0  0  0  0
 23 24  2  0  0  0  0
 23 25  1  0  0  0  0
 25 26  1  0  0  0  0
 25 73  1  0  0  0  0
 25 74  1  0  0  0  0
 26 75  1  0  0  0  0
 27 76  1  0  0  0  0
 28 29  2  0  0  0  0
 28 33  1  0  0  0  0
 29 30  1  0  0  0  0
 29 77  1  0  0  0  0
 30 31  2  0  0  0  0
 30 78  1  0  0  0  0
 31 32  1  0  0  0  0
 31 45  1  0  0  0  0
 32 33  2  0  0  0  0
 32 34  1  0  0  0  0
 33 79  1  0  0  0  0
 34 35  1  0  0  0  0
 35 36  1  0  0  0  0
 35 80  1  0  0  0  0
 35 81  1  0  0  0  0
 36 37  1  0  0  0  0
 36 82  1  0  0  0  0
 36 83  1  0  0  0  0
 37 38  1  0  0  0  0
 37 42  1  0  0  0  0
 37 84  1  0  0  0  0
 38 39  1  0  0  0  0
 38 85  1  0  0  0  0
 38 86  1  0  0  0  0
 39 40  1  0  0  0  0
 39 87  1  0  0  0  0
 39 88  1  0  0  0  0
 40 41  1  0  0  0  0
 40 43  1  0  0  0  0
 40 44  1  0  0  0  0
 41 42  1  0  0  0  0
 41 89  1  0  0  0  0
 41 90  1  0  0  0  0
 42 91  1  0  0  0  0
 42 92  1  0  0  0  0
 45 46  1  0  0  0  0
 45 47  1  0  0  0  0
 45 48  1  0  0  0  0
 49 93  1  0  0  0  0
 49 94  1  0  0  0  0
M  CHG  2  16   1  37   1
M  END
