CatS_37:1_D
 OpenBabel12041818463D

 84 89  0  0  0  0  0  0  0  0999 V2000
   43.0442   -6.7368   49.4479 C   0  0  0  0  0  0  0  0  0  0  0  0
   43.5400   -7.7546   48.0299 S   0  0  0  0  0  0  0  0  0  0  0  0
   44.8969   -7.4623   47.7039 O   0  0  0  0  0  0  0  0  0  0  0  0
   43.2339   -9.1135   48.3365 O   0  0  0  0  0  0  0  0  0  0  0  0
   42.6302   -7.3365   46.7476 N   0  0  0  0  0  0  0  0  0  0  0  0
   41.1754   -7.6008   46.8112 C   0  0  0  0  0  0  0  0  0  0  0  0
   40.5035   -7.4851   45.4231 C   0  0  0  0  0  0  0  0  0  0  0  0
   40.9285   -6.2073   44.7250 C   0  0  0  0  0  0  0  0  0  0  0  0
   41.9932   -5.5083   45.1232 C   0  0  0  0  0  0  0  0  0  0  0  0
   42.0194   -4.4063   44.2356 C   0  0  0  0  0  0  0  0  0  0  0  0
   41.0138   -4.5316   43.3973 N   0  0  0  0  0  0  0  0  0  0  0  0
   40.3013   -5.6490   43.6607 N   0  0  0  0  0  0  0  0  0  0  0  0
   39.0807   -6.0571   42.9500 C   0  0  0  0  0  0  0  0  0  0  0  0
   39.2951   -6.6225   41.5331 C   0  0  0  0  0  0  0  0  0  0  0  0
   39.0082   -5.5428   40.4691 C   0  0  0  0  0  0  0  0  0  0  0  0
   37.7265   -5.7798   39.7113 N   0  3  0  0  0  0  0  0  0  0  0  0
   37.4009   -7.2455   39.5578 C   0  0  0  0  0  0  0  0  0  0  0  0
   36.0763   -7.4156   38.7891 C   0  0  0  0  0  0  0  0  0  0  0  0
   35.0195   -6.6806   39.4350 O   0  0  0  0  0  0  0  0  0  0  0  0
   35.2899   -5.2673   39.4879 C   0  0  0  0  0  0  0  0  0  0  0  0
   36.5760   -4.9953   40.2917 C   0  0  0  0  0  0  0  0  0  0  0  0
   42.9305   -3.2742   44.1874 C   0  0  0  0  0  0  0  0  0  0  0  0
   42.7401   -2.1415   44.9692 C   0  0  0  0  0  0  0  0  0  0  0  0
   43.6208   -1.0839   44.9096 C   0  0  0  0  0  0  0  0  0  0  0  0
   44.7033   -1.1354   44.0676 C   0  0  0  0  0  0  0  0  0  0  0  0
   44.9077   -2.2580   43.2711 C   0  0  0  0  0  0  0  0  0  0  0  0
   44.0188   -3.3242   43.3398 C   0  0  0  0  0  0  0  0  0  0  0  0
   46.0399   -2.2804   42.3816 C   0  0  0  0  0  0  0  0  0  0  0  0
   46.9914   -2.2633   41.6183 C   0  0  0  0  0  0  0  0  0  0  0  0
   48.1058   -2.2043   40.7083 C   0  0  0  0  0  0  0  0  0  0  0  0
   49.3923   -1.9266   41.1620 C   0  0  0  0  0  0  0  0  0  0  0  0
   50.4347   -1.8907   40.2752 C   0  0  0  0  0  0  0  0  0  0  0  0
   50.2241   -2.1219   38.9220 C   0  0  0  0  0  0  0  0  0  0  0  0
   48.9365   -2.3958   38.4749 C   0  0  0  0  0  0  0  0  0  0  0  0
   47.8896   -2.4393   39.3537 C   0  0  0  0  0  0  0  0  0  0  0  0
   51.3044   -2.0731   38.0359 N   0  0  0  0  0  0  0  0  0  0  0  0
   51.1124   -2.3562   36.6007 C   0  0  0  0  0  0  0  0  0  0  0  0
   51.6089   -3.7210   36.1428 C   0  0  0  0  0  0  0  0  0  0  0  0
   52.9225   -3.9478   35.7909 C   0  0  0  0  0  0  0  0  0  0  0  0
   53.3275   -5.1947   35.3730 C   0  0  0  0  0  0  0  0  0  0  0  0
   52.4179   -6.2242   35.3001 C   0  0  0  0  0  0  0  0  0  0  0  0
   51.1044   -6.0038   35.6451 C   0  0  0  0  0  0  0  0  0  0  0  0
   50.7031   -4.7559   36.0644 C   0  0  0  0  0  0  0  0  0  0  0  0
   45.8128    0.2012   43.9881 Cl  0  0  0  0  0  0  0  0  0  0  0  0
   42.8503   -5.9393   46.3067 C   0  0  0  0  0  0  0  0  0  0  0  0
   42.3104   -6.1193   49.1647 H   0  0  0  0  0  0  0  0  0  0  0  0
   42.7220   -7.3250   50.1897 H   0  0  0  0  0  0  0  0  0  0  0  0
   43.8272   -6.2052   49.7708 H   0  0  0  0  0  0  0  0  0  0  0  0
   40.7531   -6.9413   47.4329 H   0  0  0  0  0  0  0  0  0  0  0  0
   41.0461   -8.5370   47.1380 H   0  0  0  0  0  0  0  0  0  0  0  0
   39.5100   -7.4848   45.5370 H   0  0  0  0  0  0  0  0  0  0  0  0
   40.7864   -8.2643   44.8638 H   0  0  0  0  0  0  0  0  0  0  0  0
   38.4829   -5.2587   42.8785 H   0  0  0  0  0  0  0  0  0  0  0  0
   38.6888   -6.8050   43.4858 H   0  0  0  0  0  0  0  0  0  0  0  0
   38.6811   -7.3989   41.3910 H   0  0  0  0  0  0  0  0  0  0  0  0
   40.2466   -6.9168   41.4439 H   0  0  0  0  0  0  0  0  0  0  0  0
   39.7669   -5.5272   39.8178 H   0  0  0  0  0  0  0  0  0  0  0  0
   38.9104   -4.6714   40.9498 H   0  0  0  0  0  0  0  0  0  0  0  0
   37.8559   -5.4483   38.8715 H   0  0  0  0  0  0  0  0  0  0  0  0
   37.3175   -7.6639   40.4623 H   0  0  0  0  0  0  0  0  0  0  0  0
   38.1348   -7.6919   39.0459 H   0  0  0  0  0  0  0  0  0  0  0  0
   35.8345   -8.3855   38.7580 H   0  0  0  0  0  0  0  0  0  0  0  0
   36.1937   -7.0621   37.8611 H   0  0  0  0  0  0  0  0  0  0  0  0
   34.5210   -4.7993   39.9236 H   0  0  0  0  0  0  0  0  0  0  0  0
   35.4134   -4.9260   38.5560 H   0  0  0  0  0  0  0  0  0  0  0  0
   36.7896   -4.0190   40.2584 H   0  0  0  0  0  0  0  0  0  0  0  0
   36.4333   -5.2779   41.2402 H   0  0  0  0  0  0  0  0  0  0  0  0
   41.9528   -2.0934   45.5837 H   0  0  0  0  0  0  0  0  0  0  0  0
   43.4710   -0.2771   45.4811 H   0  0  0  0  0  0  0  0  0  0  0  0
   44.1686   -4.1330   42.7713 H   0  0  0  0  0  0  0  0  0  0  0  0
   49.5547   -1.7537   42.1335 H   0  0  0  0  0  0  0  0  0  0  0  0
   51.3582   -1.6957   40.6055 H   0  0  0  0  0  0  0  0  0  0  0  0
   48.7744   -2.5623   37.5023 H   0  0  0  0  0  0  0  0  0  0  0  0
   46.9676   -2.6402   39.0226 H   0  0  0  0  0  0  0  0  0  0  0  0
   52.1087   -2.2023   38.3720 H   0  0  0  0  0  0  0  0  0  0  0  0
   51.5968   -1.6553   36.0772 H   0  0  0  0  0  0  0  0  0  0  0  0
   50.1247   -2.3526   36.4448 H   0  0  0  0  0  0  0  0  0  0  0  0
   53.5857   -3.2008   35.8396 H   0  0  0  0  0  0  0  0  0  0  0  0
   54.2826   -5.3526   35.1225 H   0  0  0  0  0  0  0  0  0  0  0  0
   52.7108   -7.1310   34.9968 H   0  0  0  0  0  0  0  0  0  0  0  0
   50.4413   -6.7504   35.5913 H   0  0  0  0  0  0  0  0  0  0  0  0
   49.7475   -4.5993   36.3138 H   0  0  0  0  0  0  0  0  0  0  0  0
   43.8121   -5.8384   46.0522 H   0  0  0  0  0  0  0  0  0  0  0  0
   42.5880   -5.3543   47.0741 H   0  0  0  0  0  0  0  0  0  0  0  0
  1  2  1  0  0  0  0
  1 46  1  0  0  0  0
  1 47  1  0  0  0  0
  1 48  1  0  0  0  0
  2  3  2  0  0  0  0
  2  4  2  0  0  0  0
  2  5  1  0  0  0  0
  5  6  1  0  0  0  0
  5 45  1  0  0  0  0
  6  7  1  0  0  0  0
  6 49  1  0  0  0  0
  6 50  1  0  0  0  0
  7  8  1  0  0  0  0
  7 51  1  0  0  0  0
  7 52  1  0  0  0  0
  8  9  2  0  0  0  0
  8 12  1  0  0  0  0
  9 10  1  0  0  0  0
  9 45  1  0  0  0  0
 10 11  2  0  0  0  0
 10 22  1  0  0  0  0
 11 12  1  0  0  0  0
 12 13  1  0  0  0  0
 13 14  1  0  0  0  0
 13 53  1  0  0  0  0
 13 54  1  0  0  0  0
 14 15  1  0  0  0  0
 14 55  1  0  0  0  0
 14 56  1  0  0  0  0
 15 16  1  0  0  0  0
 15 57  1  0  0  0  0
 15 58  1  0  0  0  0
 16 17  1  0  0  0  0
 16 21  1  0  0  0  0
 16 59  1  0  0  0  0
 17 18  1  0  0  0  0
 17 60  1  0  0  0  0
 17 61  1  0  0  0  0
 18 19  1  0  0  0  0
 18 62  1  0  0  0  0
 18 63  1  0  0  0  0
 19 20  1  0  0  0  0
 20 21  1  0  0  0  0
 20 64  1  0  0  0  0
 20 65  1  0  0  0  0
 21 66  1  0  0  0  0
 21 67  1  0  0  0  0
 22 23  2  0  0  0  0
 22 27  1  0  0  0  0
 23 24  1  0  0  0  0
 23 68  1  0  0  0  0
 24 25  2  0  0  0  0
 24 69  1  0  0  0  0
 25 26  1  0  0  0  0
 25 44  1  0  0  0  0
 26 27  2  0  0  0  0
 26 28  1  0  0  0  0
 27 70  1  0  0  0  0
 28 29  3  0  0  0  0
 29 30  1  0  0  0  0
 30 31  2  0  0  0  0
 30 35  1  0  0  0  0
 31 32  1  0  0  0  0
 31 71  1  0  0  0  0
 32 33  2  0  0  0  0
 32 72  1  0  0  0  0
 33 34  1  0  0  0  0
 33 36  1  0  0  0  0
 34 35  2  0  0  0  0
 34 73  1  0  0  0  0
 35 74  1  0  0  0  0
 36 37  1  0  0  0  0
 36 75  1  0  0  0  0
 37 38  1  0  0  0  0
 37 76  1  0  0  0  0
 37 77  1  0  0  0  0
 38 39  2  0  0  0  0
 38 43  1  0  0  0  0
 39 40  1  0  0  0  0
 39 78  1  0  0  0  0
 40 41  2  0  0  0  0
 40 79  1  0  0  0  0
 41 42  1  0  0  0  0
 41 80  1  0  0  0  0
 42 43  2  0  0  0  0
 42 81  1  0  0  0  0
 43 82  1  0  0  0  0
 45 83  1  0  0  0  0
 45 84  1  0  0  0  0
M  CHG  1  16   1
M  END
