CatS_396:1_D
 OpenBabel12041818463D

 92 97  0  0  1  0  0  0  0  0999 V2000
   37.5467   -4.0277   40.6423 C   0  0  0  0  0  0  0  0  0  0  0  0
   37.0331   -5.4205   40.2121 C   0  0  1  0  0  0  0  0  0  0  0  0
   35.7204   -5.2456   39.4197 C   0  0  0  0  0  0  0  0  0  0  0  0
   35.1652   -6.5262   39.0622 O   0  0  0  0  0  0  0  0  0  0  0  0
   36.0362   -7.2791   38.1968 C   0  0  0  0  0  0  0  0  0  0  0  0
   37.4021   -7.5336   38.8653 C   0  0  0  0  0  0  0  0  0  0  0  0
   37.9983   -6.2383   39.3677 N   0  3  2  0  0  0  0  0  0  0  0  0
   39.3729   -6.4444   39.9654 C   0  0  0  0  0  0  0  0  0  0  0  0
   39.3879   -7.1842   41.3270 C   0  0  1  0  0  0  0  0  0  0  0  0
   38.9923   -6.2521   42.4898 C   0  0  0  0  0  0  0  0  0  0  0  0
   40.0610   -5.8497   43.4153 N   0  0  0  0  0  0  0  0  0  0  0  0
   40.5743   -6.4526   44.5189 C   0  0  0  0  0  0  0  0  0  0  0  0
   41.6268   -5.7984   45.0245 C   0  0  0  0  0  0  0  0  0  0  0  0
   41.7729   -4.6893   44.1570 C   0  0  0  0  0  0  0  0  0  0  0  0
   40.8356   -4.7609   43.2394 N   0  0  0  0  0  0  0  0  0  0  0  0
   42.7526   -3.6152   44.1508 C   0  0  0  0  0  0  0  0  0  0  0  0
   42.6327   -2.6469   45.1369 C   0  0  0  0  0  0  0  0  0  0  0  0
   43.5052   -1.5862   45.2006 C   0  0  0  0  0  0  0  0  0  0  0  0
   44.5139   -1.4706   44.2785 C   0  0  0  0  0  0  0  0  0  0  0  0
   44.6576   -2.4331   43.2815 C   0  0  0  0  0  0  0  0  0  0  0  0
   43.7776   -3.5112   43.2277 C   0  0  0  0  0  0  0  0  0  0  0  0
   45.7182   -2.2521   42.3227 C   0  0  0  0  0  0  0  0  0  0  0  0
   46.6194   -2.1784   41.5032 C   0  0  0  0  0  0  0  0  0  0  0  0
   47.6819   -2.1820   40.5309 C   0  0  0  0  0  0  0  0  0  0  0  0
   48.9855   -2.0720   40.9991 C   0  0  0  0  0  0  0  0  0  0  0  0
   50.0325   -2.0577   40.1168 C   0  0  0  0  0  0  0  0  0  0  0  0
   49.8074   -2.1547   38.7597 C   0  0  0  0  0  0  0  0  0  0  0  0
   48.5121   -2.2679   38.2885 C   0  0  0  0  0  0  0  0  0  0  0  0
   47.4515   -2.2820   39.1621 C   0  0  0  0  0  0  0  0  0  0  0  0
   51.0508   -2.1172   37.8831 C   0  0  0  0  0  0  0  0  0  0  0  0
   50.8722   -2.5242   36.4467 N   0  3  0  0  0  0  0  0  0  0  0  0
   51.7792   -3.6593   36.0538 C   0  0  0  0  0  0  0  0  0  0  0  0
   51.1661   -5.0499   36.1003 C   0  0  0  0  0  0  0  0  0  0  0  0
   50.5328   -5.4117   37.2683 C   0  0  0  0  0  0  0  0  0  0  0  0
   49.9510   -6.6520   37.3906 C   0  0  0  0  0  0  0  0  0  0  0  0
   50.0006   -7.5403   36.3399 C   0  0  0  0  0  0  0  0  0  0  0  0
   50.6329   -7.1842   35.1693 C   0  0  0  0  0  0  0  0  0  0  0  0
   51.2141   -5.9420   35.0504 C   0  0  0  0  0  0  0  0  0  0  0  0
   49.2647   -9.1082   36.4942 Cl  0  0  0  0  0  0  0  0  0  0  0  0
   45.6033   -0.1151   44.3612 Cl  0  0  0  0  0  0  0  0  0  0  0  0
   42.4029   -6.2621   46.2536 C   0  0  0  0  0  0  0  0  0  0  0  0
   41.8889   -7.5370   46.8064 N   0  0  0  0  0  0  0  0  0  0  0  0
   41.1402   -8.4633   45.9323 C   0  0  0  0  0  0  0  0  0  0  0  0
   40.0385   -7.7308   45.1395 C   0  0  0  0  0  0  0  0  0  0  0  0
   42.1182   -7.8859   48.0874 C   0  0  0  0  0  0  0  0  0  0  0  0
   41.6793   -8.8973   48.6188 O   0  0  0  0  0  0  0  0  0  0  0  0
   42.9533   -7.0585   48.9941 C   0  0  0  0  0  0  0  0  0  0  0  0
   43.8360   -6.3169   48.5867 O   0  0  0  0  0  0  0  0  0  0  0  0
   42.6563   -7.2275   50.2893 N   0  0  0  0  0  0  0  0  0  0  0  0
   38.5167   -8.3231   41.3303 O   0  0  0  0  0  0  0  0  0  0  0  0
   36.9080   -5.9331   41.0616 H   0  0  0  0  0  0  0  0  0  0  0  0
   40.3295   -7.4941   41.4587 H   0  0  0  0  0  0  0  0  0  0  0  0
   36.9952   -3.3246   40.1935 H   0  0  0  0  0  0  0  0  0  0  0  0
   37.4720   -3.9320   41.6349 H   0  0  0  0  0  0  0  0  0  0  0  0
   38.5054   -3.9258   40.3767 H   0  0  0  0  0  0  0  0  0  0  0  0
   35.9047   -4.7215   38.5882 H   0  0  0  0  0  0  0  0  0  0  0  0
   35.0611   -4.7604   39.9941 H   0  0  0  0  0  0  0  0  0  0  0  0
   36.1756   -6.7691   37.3480 H   0  0  0  0  0  0  0  0  0  0  0  0
   35.6080   -8.1628   38.0076 H   0  0  0  0  0  0  0  0  0  0  0  0
   38.0231   -7.9480   38.2001 H   0  0  0  0  0  0  0  0  0  0  0  0
   37.2707   -8.1493   39.6423 H   0  0  0  0  0  0  0  0  0  0  0  0
   38.1407   -5.7463   38.6131 H   0  0  0  0  0  0  0  0  0  0  0  0
   39.7958   -5.5471   40.0919 H   0  0  0  0  0  0  0  0  0  0  0  0
   39.8723   -7.0280   39.3251 H   0  0  0  0  0  0  0  0  0  0  0  0
   38.2864   -6.7171   43.0242 H   0  0  0  0  0  0  0  0  0  0  0  0
   38.6959   -5.4030   42.0525 H   0  0  0  0  0  0  0  0  0  0  0  0
   41.8994   -2.7217   45.8127 H   0  0  0  0  0  0  0  0  0  0  0  0
   43.4043   -0.8987   45.9197 H   0  0  0  0  0  0  0  0  0  0  0  0
   43.8868   -4.2106   42.5214 H   0  0  0  0  0  0  0  0  0  0  0  0
   49.1593   -2.0032   41.9815 H   0  0  0  0  0  0  0  0  0  0  0  0
   50.9685   -1.9763   40.4595 H   0  0  0  0  0  0  0  0  0  0  0  0
   48.3461   -2.3400   37.3051 H   0  0  0  0  0  0  0  0  0  0  0  0
   46.5171   -2.3638   38.8154 H   0  0  0  0  0  0  0  0  0  0  0  0
   51.7305   -2.7263   38.2917 H   0  0  0  0  0  0  0  0  0  0  0  0
   51.3232   -1.1555   37.8521 H   0  0  0  0  0  0  0  0  0  0  0  0
   50.0042   -2.7574   36.3009 H   0  0  0  0  0  0  0  0  0  0  0  0
   51.0186   -1.8093   35.9018 H   0  0  0  0  0  0  0  0  0  0  0  0
   52.5677   -3.6493   36.6687 H   0  0  0  0  0  0  0  0  0  0  0  0
   52.0093   -3.4999   35.0938 H   0  0  0  0  0  0  0  0  0  0  0  0
   50.4956   -4.7683   38.0330 H   0  0  0  0  0  0  0  0  0  0  0  0
   49.4927   -6.9084   38.2416 H   0  0  0  0  0  0  0  0  0  0  0  0
   50.6699   -7.8284   34.4054 H   0  0  0  0  0  0  0  0  0  0  0  0
   51.6726   -5.6858   34.1994 H   0  0  0  0  0  0  0  0  0  0  0  0
   42.3397   -5.5560   46.9589 H   0  0  0  0  0  0  0  0  0  0  0  0
   43.3501   -6.4162   45.9723 H   0  0  0  0  0  0  0  0  0  0  0  0
   40.7198   -9.1747   46.4954 H   0  0  0  0  0  0  0  0  0  0  0  0
   41.7820   -8.8624   45.2774 H   0  0  0  0  0  0  0  0  0  0  0  0
   39.6994   -8.3308   44.4149 H   0  0  0  0  0  0  0  0  0  0  0  0
   39.2985   -7.4937   45.7689 H   0  0  0  0  0  0  0  0  0  0  0  0
   42.0080   -7.7714   50.5291 H   0  0  0  0  0  0  0  0  0  0  0  0
   43.1109   -6.7911   50.9037 H   0  0  0  0  0  0  0  0  0  0  0  0
   38.8166   -9.0168   40.6667 H   0  0  0  0  0  0  0  0  0  0  0  0
  1  2  1  0  0  0  0
  1 53  1  0  0  0  0
  1 54  1  0  0  0  0
  1 55  1  0  0  0  0
  2  3  1  0  0  0  0
  2  7  1  0  0  0  0
  2 51  1  1  0  0  0
  3  4  1  0  0  0  0
  3 56  1  0  0  0  0
  3 57  1  0  0  0  0
  4  5  1  0  0  0  0
  5  6  1  0  0  0  0
  5 58  1  0  0  0  0
  5 59  1  0  0  0  0
  6  7  1  0  0  0  0
  6 60  1  0  0  0  0
  6 61  1  0  0  0  0
  7  8  1  0  0  0  0
  7 62  1  6  0  0  0
  8  9  1  0  0  0  0
  8 63  1  0  0  0  0
  8 64  1  0  0  0  0
  9 10  1  0  0  0  0
  9 50  1  0  0  0  0
  9 52  1  1  0  0  0
 10 11  1  0  0  0  0
 10 65  1  0  0  0  0
 10 66  1  0  0  0  0
 11 12  1  0  0  0  0
 11 15  1  0  0  0  0
 12 13  2  0  0  0  0
 12 44  1  0  0  0  0
 13 14  1  0  0  0  0
 13 41  1  0  0  0  0
 14 15  2  0  0  0  0
 14 16  1  0  0  0  0
 16 17  2  0  0  0  0
 16 21  1  0  0  0  0
 17 18  1  0  0  0  0
 17 67  1  0  0  0  0
 18 19  2  0  0  0  0
 18 68  1  0  0  0  0
 19 20  1  0  0  0  0
 19 40  1  0  0  0  0
 20 21  2  0  0  0  0
 20 22  1  0  0  0  0
 21 69  1  0  0  0  0
 22 23  3  0  0  0  0
 23 24  1  0  0  0  0
 24 25  2  0  0  0  0
 24 29  1  0  0  0  0
 25 26  1  0  0  0  0
 25 70  1  0  0  0  0
 26 27  2  0  0  0  0
 26 71  1  0  0  0  0
 27 28  1  0  0  0  0
 27 30  1  0  0  0  0
 28 29  2  0  0  0  0
 28 72  1  0  0  0  0
 29 73  1  0  0  0  0
 30 31  1  0  0  0  0
 30 74  1  0  0  0  0
 30 75  1  0  0  0  0
 31 32  1  0  0  0  0
 31 76  1  0  0  0  0
 31 77  1  0  0  0  0
 32 33  1  0  0  0  0
 32 78  1  0  0  0  0
 32 79  1  0  0  0  0
 33 34  2  0  0  0  0
 33 38  1  0  0  0  0
 34 35  1  0  0  0  0
 34 80  1  0  0  0  0
 35 36  2  0  0  0  0
 35 81  1  0  0  0  0
 36 37  1  0  0  0  0
 36 39  1  0  0  0  0
 37 38  2  0  0  0  0
 37 82  1  0  0  0  0
 38 83  1  0  0  0  0
 41 42  1  0  0  0  0
 41 84  1  0  0  0  0
 41 85  1  0  0  0  0
 42 43  1  0  0  0  0
 42 45  1  0  0  0  0
 43 44  1  0  0  0  0
 43 86  1  0  0  0  0
 43 87  1  0  0  0  0
 44 88  1  0  0  0  0
 44 89  1  0  0  0  0
 45 46  2  0  0  0  0
 45 47  1  0  0  0  0
 47 48  2  0  0  0  0
 47 49  1  0  0  0  0
 49 90  1  0  0  0  0
 49 91  1  0  0  0  0
 50 92  1  0  0  0  0
M  CHG  2   7   1  31   1
M  END
