CatS_89:1_D
 OpenBabel12041818463D

 90 95  0  0  1  0  0  0  0  0999 V2000
   49.7981   -3.5731   37.9659 C   0  0  0  0  0  0  0  0  0  0  0  0
   50.0215   -2.3453   38.5467 C   0  0  0  0  0  0  0  0  0  0  0  0
   49.1796   -1.8873   39.5313 C   0  0  0  0  0  0  0  0  0  0  0  0
   48.0999   -2.6490   39.9493 C   0  0  0  0  0  0  0  0  0  0  0  0
   47.8849   -3.8826   39.3540 C   0  0  0  0  0  0  0  0  0  0  0  0
   48.7293   -4.3405   38.3710 C   0  0  0  0  0  0  0  0  0  0  0  0
   47.2454   -2.1688   40.9547 N   0  0  0  0  0  0  0  0  0  0  0  0
   46.1873   -1.1965   40.6246 C   0  0  0  0  0  0  0  0  0  0  0  0
   44.9718   -1.4376   41.5354 C   0  0  0  0  0  0  0  0  0  0  0  0
   45.3599   -1.3441   42.9884 N   0  3  0  0  0  0  0  0  0  0  0  0
   46.5329   -2.2276   43.3359 C   0  0  0  0  0  0  0  0  0  0  0  0
   47.7000   -2.0106   42.3503 C   0  0  0  0  0  0  0  0  0  0  0  0
   44.1468   -1.5616   43.8555 C   0  0  0  0  0  0  0  0  0  0  0  0
   43.7938   -3.0257   44.1996 C   0  0  1  0  0  0  0  0  0  0  0  0
   42.3700   -3.1127   44.7925 C   0  0  0  0  0  0  0  0  0  0  0  0
   41.5945   -4.2829   44.3461 N   0  0  0  0  0  0  0  0  0  0  0  0
   41.4363   -5.5163   44.8930 C   0  0  0  0  0  0  0  0  0  0  0  0
   40.5559   -6.2685   44.2182 C   0  0  0  0  0  0  0  0  0  0  0  0
   40.1504   -5.4326   43.1509 C   0  0  0  0  0  0  0  0  0  0  0  0
   40.7755   -4.2849   43.2761 N   0  0  0  0  0  0  0  0  0  0  0  0
   39.2210   -5.6628   42.0575 C   0  0  0  0  0  0  0  0  0  0  0  0
   38.0420   -4.9430   42.0489 C   0  0  0  0  0  0  0  0  0  0  0  0
   37.1248   -5.1016   41.0396 C   0  0  0  0  0  0  0  0  0  0  0  0
   37.3479   -5.9805   40.0005 C   0  0  0  0  0  0  0  0  0  0  0  0
   38.5314   -6.7062   40.0097 C   0  0  0  0  0  0  0  0  0  0  0  0
   39.4565   -6.5478   41.0184 C   0  0  0  0  0  0  0  0  0  0  0  0
   38.9245   -7.8838   38.7097 S   0  0  0  0  0  0  0  0  0  0  0  0
   40.5519   -8.5648   39.1242 C   0  0  0  0  0  0  0  0  0  0  0  0
   40.9659   -9.6194   38.0740 C   0  0  0  0  0  0  0  0  0  0  0  0
   42.2107   -9.2638   37.3007 N   0  3  2  0  0  0  0  0  0  0  0  0
   42.2740   -7.8219   36.8634 C   0  0  0  0  0  0  0  0  0  0  0  0
   43.6878   -7.4539   36.3489 C   0  0  0  0  0  0  0  0  0  0  0  0
   44.4482   -8.6829   35.7965 C   0  0  1  0  0  0  0  0  0  0  0  0
   43.4776   -9.6755   35.1291 C   0  0  0  0  0  0  0  0  0  0  0  0
   42.4550  -10.2201   36.1558 C   0  0  0  0  0  0  0  0  0  0  0  0
   45.3967   -8.2672   34.8681 F   0  0  0  0  0  0  0  0  0  0  0  0
   36.2605   -6.0711   38.9313 C   0  0  0  0  0  0  0  0  0  0  0  0
   36.7483   -5.7034   37.6825 F   0  0  0  0  0  0  0  0  0  0  0  0
   35.7820   -7.3713   38.8264 F   0  0  0  0  0  0  0  0  0  0  0  0
   35.1609   -5.2551   39.1842 F   0  0  0  0  0  0  0  0  0  0  0  0
   40.1789   -7.6904   44.6161 C   0  0  0  0  0  0  0  0  0  0  0  0
   40.6186   -7.9659   46.0361 N   0  3  0  0  0  0  0  0  0  0  0  0
   42.0233   -7.5262   46.3583 C   0  0  0  0  0  0  0  0  0  0  0  0
   42.1584   -6.0015   46.1438 C   0  0  0  0  0  0  0  0  0  0  0  0
   43.8518   -3.8458   43.0219 O   0  0  0  0  0  0  0  0  0  0  0  0
   44.4591   -3.3523   44.8709 H   0  0  0  0  0  0  0  0  0  0  0  0
   50.4116   -3.9073   37.2504 H   0  0  0  0  0  0  0  0  0  0  0  0
   50.7966   -1.7864   38.2520 H   0  0  0  0  0  0  0  0  0  0  0  0
   49.3477   -0.9952   39.9506 H   0  0  0  0  0  0  0  0  0  0  0  0
   47.1090   -4.4438   39.6422 H   0  0  0  0  0  0  0  0  0  0  0  0
   48.5671   -5.2326   37.9492 H   0  0  0  0  0  0  0  0  0  0  0  0
   45.9177   -1.3060   39.6679 H   0  0  0  0  0  0  0  0  0  0  0  0
   46.5306   -0.2680   40.7658 H   0  0  0  0  0  0  0  0  0  0  0  0
   44.5987   -2.3470   41.3517 H   0  0  0  0  0  0  0  0  0  0  0  0
   44.2858   -0.7356   41.3440 H   0  0  0  0  0  0  0  0  0  0  0  0
   45.6392   -0.4877   43.1284 H   0  0  0  0  0  0  0  0  0  0  0  0
   46.2451   -3.1846   43.3002 H   0  0  0  0  0  0  0  0  0  0  0  0
   46.8468   -1.9928   44.2558 H   0  0  0  0  0  0  0  0  0  0  0  0
   48.0694   -1.0896   42.4737 H   0  0  0  0  0  0  0  0  0  0  0  0
   48.4057   -2.6943   42.5363 H   0  0  0  0  0  0  0  0  0  0  0  0
   43.3608   -1.1601   43.3855 H   0  0  0  0  0  0  0  0  0  0  0  0
   44.3700   -1.1337   44.7314 H   0  0  0  0  0  0  0  0  0  0  0  0
   41.8705   -2.2861   44.5327 H   0  0  0  0  0  0  0  0  0  0  0  0
   42.4788   -3.2052   45.7822 H   0  0  0  0  0  0  0  0  0  0  0  0
   37.8538   -4.2969   42.7885 H   0  0  0  0  0  0  0  0  0  0  0  0
   36.2783   -4.5694   41.0583 H   0  0  0  0  0  0  0  0  0  0  0  0
   40.3051   -7.0764   41.0002 H   0  0  0  0  0  0  0  0  0  0  0  0
   40.5140   -8.9908   40.0281 H   0  0  0  0  0  0  0  0  0  0  0  0
   41.2255   -7.8257   39.1288 H   0  0  0  0  0  0  0  0  0  0  0  0
   40.2124   -9.7320   37.4261 H   0  0  0  0  0  0  0  0  0  0  0  0
   41.1703  -10.4601   38.5755 H   0  0  0  0  0  0  0  0  0  0  0  0
   42.9053   -9.3783   37.8784 H   0  0  0  0  0  0  0  0  0  0  0  0
   42.0431   -7.2340   37.6386 H   0  0  0  0  0  0  0  0  0  0  0  0
   41.6223   -7.6889   36.1167 H   0  0  0  0  0  0  0  0  0  0  0  0
   44.2133   -7.0591   37.1025 H   0  0  0  0  0  0  0  0  0  0  0  0
   43.5806   -6.7996   35.6004 H   0  0  0  0  0  0  0  0  0  0  0  0
   44.9001   -9.1438   36.5603 H   0  0  0  0  0  0  0  0  0  0  0  0
   43.9987  -10.4380   34.7458 H   0  0  0  0  0  0  0  0  0  0  0  0
   42.9794   -9.1982   34.4054 H   0  0  0  0  0  0  0  0  0  0  0  0
   41.5875  -10.3892   35.6879 H   0  0  0  0  0  0  0  0  0  0  0  0
   42.8349  -11.0610   36.5411 H   0  0  0  0  0  0  0  0  0  0  0  0
   40.6245   -8.3377   43.9976 H   0  0  0  0  0  0  0  0  0  0  0  0
   39.1862   -7.7949   44.5558 H   0  0  0  0  0  0  0  0  0  0  0  0
   40.0344   -7.5860   46.6224 H   0  0  0  0  0  0  0  0  0  0  0  0
   40.5540   -8.8585   46.2052 H   0  0  0  0  0  0  0  0  0  0  0  0
   42.6675   -8.0059   45.7626 H   0  0  0  0  0  0  0  0  0  0  0  0
   42.2253   -7.7426   47.3134 H   0  0  0  0  0  0  0  0  0  0  0  0
   41.7768   -5.5293   46.9384 H   0  0  0  0  0  0  0  0  0  0  0  0
   43.1309   -5.7996   46.0278 H   0  0  0  0  0  0  0  0  0  0  0  0
   44.7909   -4.1407   42.8197 H   0  0  0  0  0  0  0  0  0  0  0  0
  1  2  2  0  0  0  0
  1  6  1  0  0  0  0
  1 47  1  0  0  0  0
  2  3  1  0  0  0  0
  2 48  1  0  0  0  0
  3  4  2  0  0  0  0
  3 49  1  0  0  0  0
  4  5  1  0  0  0  0
  4  7  1  0  0  0  0
  5  6  2  0  0  0  0
  5 50  1  0  0  0  0
  6 51  1  0  0  0  0
  7  8  1  0  0  0  0
  7 12  1  0  0  0  0
  8  9  1  0  0  0  0
  8 52  1  0  0  0  0
  8 53  1  0  0  0  0
  9 10  1  0  0  0  0
  9 54  1  0  0  0  0
  9 55  1  0  0  0  0
 10 11  1  0  0  0  0
 10 13  1  0  0  0  0
 10 56  1  0  0  0  0
 11 12  1  0  0  0  0
 11 57  1  0  0  0  0
 11 58  1  0  0  0  0
 12 59  1  0  0  0  0
 12 60  1  0  0  0  0
 13 14  1  0  0  0  0
 13 61  1  0  0  0  0
 13 62  1  0  0  0  0
 14 15  1  0  0  0  0
 14 45  1  0  0  0  0
 14 46  1  1  0  0  0
 15 16  1  0  0  0  0
 15 63  1  0  0  0  0
 15 64  1  0  0  0  0
 16 17  1  0  0  0  0
 16 20  1  0  0  0  0
 17 18  2  0  0  0  0
 17 44  1  0  0  0  0
 18 19  1  0  0  0  0
 18 41  1  0  0  0  0
 19 20  2  0  0  0  0
 19 21  1  0  0  0  0
 21 22  2  0  0  0  0
 21 26  1  0  0  0  0
 22 23  1  0  0  0  0
 22 65  1  0  0  0  0
 23 24  2  0  0  0  0
 23 66  1  0  0  0  0
 24 25  1  0  0  0  0
 24 37  1  0  0  0  0
 25 26  2  0  0  0  0
 25 27  1  0  0  0  0
 26 67  1  0  0  0  0
 27 28  1  0  0  0  0
 28 29  1  0  0  0  0
 28 68  1  0  0  0  0
 28 69  1  0  0  0  0
 29 30  1  0  0  0  0
 29 70  1  0  0  0  0
 29 71  1  0  0  0  0
 30 31  1  0  0  0  0
 30 35  1  0  0  0  0
 30 72  1  1  0  0  0
 31 32  1  0  0  0  0
 31 73  1  0  0  0  0
 31 74  1  0  0  0  0
 32 33  1  0  0  0  0
 32 75  1  0  0  0  0
 32 76  1  0  0  0  0
 33 34  1  0  0  0  0
 33 36  1  0  0  0  0
 33 77  1  1  0  0  0
 34 35  1  0  0  0  0
 34 78  1  0  0  0  0
 34 79  1  0  0  0  0
 35 80  1  0  0  0  0
 35 81  1  0  0  0  0
 37 38  1  0  0  0  0
 37 39  1  0  0  0  0
 37 40  1  0  0  0  0
 41 42  1  0  0  0  0
 41 82  1  0  0  0  0
 41 83  1  0  0  0  0
 42 43  1  0  0  0  0
 42 84  1  0  0  0  0
 42 85  1  0  0  0  0
 43 44  1  0  0  0  0
 43 86  1  0  0  0  0
 43 87  1  0  0  0  0
 44 88  1  0  0  0  0
 44 89  1  0  0  0  0
 45 90  1  0  0  0  0
M  CHG  3  10   1  30   1  42   1
M  END
