CatS_270:1_D
 OpenBabel12041818463D

 87 92  0  0  0  0  0  0  0  0999 V2000
   42.5851   -8.2321   48.5922 C   0  0  0  0  0  0  0  0  0  0  0  0
   43.1881   -8.7923   46.9767 S   0  0  0  0  0  0  0  0  0  0  0  0
   42.9007  -10.1831   46.8421 O   0  0  0  0  0  0  0  0  0  0  0  0
   44.5455   -8.3733   46.8421 O   0  0  0  0  0  0  0  0  0  0  0  0
   42.3350   -8.0222   45.8280 N   0  0  0  0  0  0  0  0  0  0  0  0
   40.8957   -8.3562   45.8238 C   0  0  0  0  0  0  0  0  0  0  0  0
   40.1731   -7.8937   44.5374 C   0  0  0  0  0  0  0  0  0  0  0  0
   40.5356   -6.4608   44.1836 C   0  0  0  0  0  0  0  0  0  0  0  0
   41.5964   -5.8674   44.7401 C   0  0  0  0  0  0  0  0  0  0  0  0
   41.6059   -4.5807   44.1549 C   0  0  0  0  0  0  0  0  0  0  0  0
   40.5931   -4.5076   43.3217 N   0  0  0  0  0  0  0  0  0  0  0  0
   39.8800   -5.6539   43.3034 N   0  0  0  0  0  0  0  0  0  0  0  0
   38.7042   -5.8547   42.4390 C   0  0  0  0  0  0  0  0  0  0  0  0
   38.1058   -4.7026   41.6091 C   0  0  0  0  0  0  0  0  0  0  0  0
   38.1048   -5.0015   40.0942 C   0  0  0  0  0  0  0  0  0  0  0  0
   36.7892   -4.7352   39.4002 N   0  3  0  0  0  0  0  0  0  0  0  0
   35.5974   -5.1481   40.2304 C   0  0  0  0  0  0  0  0  0  0  0  0
   35.4249   -6.6788   40.1961 C   0  0  0  0  0  0  0  0  0  0  0  0
   35.3314   -7.1417   38.8359 O   0  0  0  0  0  0  0  0  0  0  0  0
   36.5174   -6.8430   38.0757 C   0  0  0  0  0  0  0  0  0  0  0  0
   36.7501   -5.3206   38.0102 C   0  0  0  0  0  0  0  0  0  0  0  0
   42.5190   -3.4644   44.3397 C   0  0  0  0  0  0  0  0  0  0  0  0
   42.0916   -2.4284   45.1566 C   0  0  0  0  0  0  0  0  0  0  0  0
   42.8882   -1.3319   45.3881 C   0  0  0  0  0  0  0  0  0  0  0  0
   44.1296   -1.2501   44.8103 C   0  0  0  0  0  0  0  0  0  0  0  0
   44.5849   -2.2812   43.9911 C   0  0  0  0  0  0  0  0  0  0  0  0
   43.7737   -3.3893   43.7609 C   0  0  0  0  0  0  0  0  0  0  0  0
   45.8978   -2.1528   43.4104 C   0  0  0  0  0  0  0  0  0  0  0  0
   46.9784   -2.0699   42.8487 C   0  0  0  0  0  0  0  0  0  0  0  0
   48.2095   -2.0051   42.1035 C   0  0  0  0  0  0  0  0  0  0  0  0
   48.2884   -2.1845   40.7300 C   0  0  0  0  0  0  0  0  0  0  0  0
   49.5174   -2.0985   40.1344 C   0  0  0  0  0  0  0  0  0  0  0  0
   50.6231   -1.8395   40.9171 C   0  0  0  0  0  0  0  0  0  0  0  0
   50.5888   -1.6599   42.2513 N   0  0  0  0  0  0  0  0  0  0  0  0
   49.3731   -1.7481   42.8128 C   0  0  0  0  0  0  0  0  0  0  0  0
   49.8075   -2.2651   38.6516 C   0  0  0  0  0  0  0  0  0  0  0  0
   50.1372   -3.6511   38.1790 N   0  3  0  0  0  0  0  0  0  0  0  0
   50.6973   -3.6475   36.7827 C   0  0  0  0  0  0  0  0  0  0  0  0
   50.9326   -5.0088   36.1519 C   0  0  0  0  0  0  0  0  0  0  0  0
   50.0835   -6.0221   36.5359 C   0  0  0  0  0  0  0  0  0  0  0  0
   50.2267   -7.2855   36.0122 C   0  0  0  0  0  0  0  0  0  0  0  0
   51.2244   -7.5407   35.0986 C   0  0  0  0  0  0  0  0  0  0  0  0
   52.0766   -6.5303   34.7116 C   0  0  0  0  0  0  0  0  0  0  0  0
   51.9310   -5.2667   35.2372 C   0  0  0  0  0  0  0  0  0  0  0  0
   51.4046   -9.1382   34.4365 Cl  0  0  0  0  0  0  0  0  0  0  0  0
   45.1258    0.1460   45.1093 Cl  0  0  0  0  0  0  0  0  0  0  0  0
   42.4904   -6.5504   45.7679 C   0  0  0  0  0  0  0  0  0  0  0  0
   41.8527   -7.5656   48.4531 H   0  0  0  0  0  0  0  0  0  0  0  0
   42.2363   -9.0123   49.1116 H   0  0  0  0  0  0  0  0  0  0  0  0
   43.3337   -7.8096   49.1030 H   0  0  0  0  0  0  0  0  0  0  0  0
   40.4627   -7.9172   46.6111 H   0  0  0  0  0  0  0  0  0  0  0  0
   40.8194   -9.3524   45.8670 H   0  0  0  0  0  0  0  0  0  0  0  0
   39.1849   -7.9573   44.6765 H   0  0  0  0  0  0  0  0  0  0  0  0
   40.4611   -8.4853   43.7843 H   0  0  0  0  0  0  0  0  0  0  0  0
   37.9711   -6.1881   43.0317 H   0  0  0  0  0  0  0  0  0  0  0  0
   39.0615   -6.4633   41.7305 H   0  0  0  0  0  0  0  0  0  0  0  0
   38.6416   -3.8746   41.7744 H   0  0  0  0  0  0  0  0  0  0  0  0
   37.1545   -4.5858   41.8943 H   0  0  0  0  0  0  0  0  0  0  0  0
   38.3387   -5.9652   39.9651 H   0  0  0  0  0  0  0  0  0  0  0  0
   38.7711   -4.3795   39.6828 H   0  0  0  0  0  0  0  0  0  0  0  0
   36.7285   -3.8320   39.2908 H   0  0  0  0  0  0  0  0  0  0  0  0
   34.7738   -4.7127   39.8670 H   0  0  0  0  0  0  0  0  0  0  0  0
   35.7453   -4.8602   41.1766 H   0  0  0  0  0  0  0  0  0  0  0  0
   34.5925   -6.9295   40.6904 H   0  0  0  0  0  0  0  0  0  0  0  0
   36.2192   -7.1049   40.6292 H   0  0  0  0  0  0  0  0  0  0  0  0
   36.4144   -7.2026   37.1483 H   0  0  0  0  0  0  0  0  0  0  0  0
   37.3034   -7.2693   38.5234 H   0  0  0  0  0  0  0  0  0  0  0  0
   37.6180   -5.1367   37.5489 H   0  0  0  0  0  0  0  0  0  0  0  0
   35.9985   -4.9000   37.5019 H   0  0  0  0  0  0  0  0  0  0  0  0
   41.1892   -2.4797   45.5842 H   0  0  0  0  0  0  0  0  0  0  0  0
   42.5623   -0.5933   45.9782 H   0  0  0  0  0  0  0  0  0  0  0  0
   44.0986   -4.1325   43.1760 H   0  0  0  0  0  0  0  0  0  0  0  0
   47.4684   -2.3717   40.1891 H   0  0  0  0  0  0  0  0  0  0  0  0
   51.5119   -1.7810   40.4625 H   0  0  0  0  0  0  0  0  0  0  0  0
   49.3020   -1.6210   43.8021 H   0  0  0  0  0  0  0  0  0  0  0  0
   50.5812   -1.6733   38.4249 H   0  0  0  0  0  0  0  0  0  0  0  0
   48.9530   -2.0283   38.1894 H   0  0  0  0  0  0  0  0  0  0  0  0
   49.3915   -4.1722   38.2172 H   0  0  0  0  0  0  0  0  0  0  0  0
   50.7288   -4.0397   38.7517 H   0  0  0  0  0  0  0  0  0  0  0  0
   51.5720   -3.1632   36.8046 H   0  0  0  0  0  0  0  0  0  0  0  0
   50.0004   -3.2081   36.2159 H   0  0  0  0  0  0  0  0  0  0  0  0
   49.3584   -5.8383   37.1996 H   0  0  0  0  0  0  0  0  0  0  0  0
   49.6069   -8.0178   36.2946 H   0  0  0  0  0  0  0  0  0  0  0  0
   52.8017   -6.7150   34.0480 H   0  0  0  0  0  0  0  0  0  0  0  0
   52.5506   -4.5343   34.9550 H   0  0  0  0  0  0  0  0  0  0  0  0
   43.4430   -6.3435   45.5450 H   0  0  0  0  0  0  0  0  0  0  0  0
   42.2178   -6.1969   46.6628 H   0  0  0  0  0  0  0  0  0  0  0  0
  1  2  1  0  0  0  0
  1 48  1  0  0  0  0
  1 49  1  0  0  0  0
  1 50  1  0  0  0  0
  2  3  2  0  0  0  0
  2  4  2  0  0  0  0
  2  5  1  0  0  0  0
  5  6  1  0  0  0  0
  5 47  1  0  0  0  0
  6  7  1  0  0  0  0
  6 51  1  0  0  0  0
  6 52  1  0  0  0  0
  7  8  1  0  0  0  0
  7 53  1  0  0  0  0
  7 54  1  0  0  0  0
  8  9  2  0  0  0  0
  8 12  1  0  0  0  0
  9 10  1  0  0  0  0
  9 47  1  0  0  0  0
 10 11  2  0  0  0  0
 10 22  1  0  0  0  0
 11 12  1  0  0  0  0
 12 13  1  0  0  0  0
 13 14  1  0  0  0  0
 13 55  1  0  0  0  0
 13 56  1  0  0  0  0
 14 15  1  0  0  0  0
 14 57  1  0  0  0  0
 14 58  1  0  0  0  0
 15 16  1  0  0  0  0
 15 59  1  0  0  0  0
 15 60  1  0  0  0  0
 16 17  1  0  0  0  0
 16 21  1  0  0  0  0
 16 61  1  0  0  0  0
 17 18  1  0  0  0  0
 17 62  1  0  0  0  0
 17 63  1  0  0  0  0
 18 19  1  0  0  0  0
 18 64  1  0  0  0  0
 18 65  1  0  0  0  0
 19 20  1  0  0  0  0
 20 21  1  0  0  0  0
 20 66  1  0  0  0  0
 20 67  1  0  0  0  0
 21 68  1  0  0  0  0
 21 69  1  0  0  0  0
 22 23  2  0  0  0  0
 22 27  1  0  0  0  0
 23 24  1  0  0  0  0
 23 70  1  0  0  0  0
 24 25  2  0  0  0  0
 24 71  1  0  0  0  0
 25 26  1  0  0  0  0
 25 46  1  0  0  0  0
 26 27  2  0  0  0  0
 26 28  1  0  0  0  0
 27 72  1  0  0  0  0
 28 29  3  0  0  0  0
 29 30  1  0  0  0  0
 30 31  2  0  0  0  0
 30 35  1  0  0  0  0
 31 32  1  0  0  0  0
 31 73  1  0  0  0  0
 32 33  2  0  0  0  0
 32 36  1  0  0  0  0
 33 34  1  0  0  0  0
 33 74  1  0  0  0  0
 34 35  2  0  0  0  0
 35 75  1  0  0  0  0
 36 37  1  0  0  0  0
 36 76  1  0  0  0  0
 36 77  1  0  0  0  0
 37 38  1  0  0  0  0
 37 78  1  0  0  0  0
 37 79  1  0  0  0  0
 38 39  1  0  0  0  0
 38 80  1  0  0  0  0
 38 81  1  0  0  0  0
 39 40  2  0  0  0  0
 39 44  1  0  0  0  0
 40 41  1  0  0  0  0
 40 82  1  0  0  0  0
 41 42  2  0  0  0  0
 41 83  1  0  0  0  0
 42 43  1  0  0  0  0
 42 45  1  0  0  0  0
 43 44  2  0  0  0  0
 43 84  1  0  0  0  0
 44 85  1  0  0  0  0
 47 86  1  0  0  0  0
 47 87  1  0  0  0  0
M  CHG  2  16   1  37   1
M  END
