CatS_85:1_D
 OpenBabel12041818463D

 95 99  0  0  1  0  0  0  0  0999 V2000
   48.7516    3.0843   41.4760 C   0  0  0  0  0  0  0  0  0  0  0  0
   47.2687    3.0335   41.7391 N   0  3  0  0  0  0  0  0  0  0  0  0
   46.7718    4.3232   42.3400 C   0  0  0  0  0  0  0  0  0  0  0  0
   46.7917    1.8055   42.4901 C   0  0  1  0  0  0  0  0  0  0  0  0
   45.4654    2.0251   43.2523 C   0  0  0  0  0  0  0  0  0  0  0  0
   45.1929    0.8102   44.1656 C   0  0  0  0  0  0  0  0  0  0  0  0
   45.1343   -0.4826   43.3800 N   0  3  1  0  0  0  0  0  0  0  0  0
   46.3424   -0.6726   42.4930 C   0  0  0  0  0  0  0  0  0  0  0  0
   46.6208    0.5530   41.6035 C   0  0  0  0  0  0  0  0  0  0  0  0
   44.9357   -1.7005   44.2479 C   0  0  0  0  0  0  0  0  0  0  0  0
   44.0922   -2.8574   43.6612 C   0  0  1  0  0  0  0  0  0  0  0  0
   43.0793   -3.3966   44.6958 C   0  0  0  0  0  0  0  0  0  0  0  0
   42.1074   -4.4556   44.3696 N   0  0  0  0  0  0  0  0  0  0  0  0
   41.7050   -5.5607   45.0547 C   0  0  0  0  0  0  0  0  0  0  0  0
   40.6197   -6.1367   44.5307 C   0  0  0  0  0  0  0  0  0  0  0  0
   40.3413   -5.3413   43.3970 C   0  0  0  0  0  0  0  0  0  0  0  0
   41.2398   -4.3842   43.3344 N   0  0  0  0  0  0  0  0  0  0  0  0
   39.2874   -5.4689   42.4077 C   0  0  0  0  0  0  0  0  0  0  0  0
   38.2463   -4.5630   42.3020 C   0  0  0  0  0  0  0  0  0  0  0  0
   37.3005   -4.7056   41.3144 C   0  0  0  0  0  0  0  0  0  0  0  0
   37.3511   -5.7486   40.4096 C   0  0  0  0  0  0  0  0  0  0  0  0
   38.3877   -6.6652   40.5298 C   0  0  0  0  0  0  0  0  0  0  0  0
   39.3333   -6.5215   41.5181 C   0  0  0  0  0  0  0  0  0  0  0  0
   38.5331   -8.0835   39.4273 S   0  0  0  0  0  0  0  0  0  0  0  0
   40.2263   -8.2582   38.7856 C   0  0  0  0  0  0  0  0  0  0  0  0
   40.2102   -9.0298   37.4487 C   0  0  0  0  0  0  0  0  0  0  0  0
   41.4343   -8.8682   36.5835 N   0  3  2  0  0  0  0  0  0  0  0  0
   42.2286  -10.1448   36.4331 C   0  0  0  0  0  0  0  0  0  0  0  0
   43.4610   -9.9298   35.5311 C   0  0  0  0  0  0  0  0  0  0  0  0
   44.3394   -8.8070   36.1122 C   0  0  2  0  0  0  0  0  0  0  0  0
   43.5222   -7.5051   36.1746 C   0  0  0  0  0  0  0  0  0  0  0  0
   42.2847   -7.7168   37.0668 C   0  0  0  0  0  0  0  0  0  0  0  0
   45.4492   -8.6154   35.2980 F   0  0  0  0  0  0  0  0  0  0  0  0
   36.2596   -5.8059   39.3392 C   0  0  0  0  0  0  0  0  0  0  0  0
   35.2280   -4.8915   39.5377 F   0  0  0  0  0  0  0  0  0  0  0  0
   36.8008   -5.5271   38.0896 F   0  0  0  0  0  0  0  0  0  0  0  0
   35.6697   -7.0643   39.2593 F   0  0  0  0  0  0  0  0  0  0  0  0
   39.9697   -7.3864   45.1146 C   0  0  0  0  0  0  0  0  0  0  0  0
   40.4975   -7.8011   46.4389 N   0  0  0  0  0  0  0  0  0  0  0  0
   41.9647   -7.6330   46.4499 C   0  0  0  0  0  0  0  0  0  0  0  0
   42.3611   -6.1498   46.2896 C   0  0  0  0  0  0  0  0  0  0  0  0
   39.9417   -9.2105   47.0330 S   0  0  0  0  0  0  0  0  0  0  0  0
   40.5653   -9.4156   48.3000 O   0  0  0  0  0  0  0  0  0  0  0  0
   38.5152   -9.1782   46.9835 O   0  0  0  0  0  0  0  0  0  0  0  0
   40.4976  -10.5128   45.9047 C   0  0  0  0  0  0  0  0  0  0  0  0
   43.3849   -2.4478   42.4815 O   0  0  0  0  0  0  0  0  0  0  0  0
   44.7340   -3.5853   43.4199 H   0  0  0  0  0  0  0  0  0  0  0  0
   48.9083    3.0570   40.4888 H   0  0  0  0  0  0  0  0  0  0  0  0
   49.1331    3.9277   41.8544 H   0  0  0  0  0  0  0  0  0  0  0  0
   49.1976    2.3018   41.9105 H   0  0  0  0  0  0  0  0  0  0  0  0
   46.8761    2.9896   40.9177 H   0  0  0  0  0  0  0  0  0  0  0  0
   46.1594    4.7713   41.6886 H   0  0  0  0  0  0  0  0  0  0  0  0
   46.2791    4.1326   43.1891 H   0  0  0  0  0  0  0  0  0  0  0  0
   47.5473    4.9217   42.5411 H   0  0  0  0  0  0  0  0  0  0  0  0
   47.5326    1.6461   43.1425 H   0  0  0  0  0  0  0  0  0  0  0  0
   44.7161    2.1291   42.5983 H   0  0  0  0  0  0  0  0  0  0  0  0
   45.5332    2.8525   43.8097 H   0  0  0  0  0  0  0  0  0  0  0  0
   44.3207    0.9460   44.6355 H   0  0  0  0  0  0  0  0  0  0  0  0
   45.9446    0.7398   44.8213 H   0  0  0  0  0  0  0  0  0  0  0  0
   44.4148   -0.4266   42.8246 H   0  0  0  0  0  0  0  0  0  0  0  0
   46.1899   -1.4688   41.9074 H   0  0  0  0  0  0  0  0  0  0  0  0
   47.1369   -0.8020   43.0864 H   0  0  0  0  0  0  0  0  0  0  0  0
   47.4556    0.4011   41.0743 H   0  0  0  0  0  0  0  0  0  0  0  0
   45.8527    0.6903   40.9780 H   0  0  0  0  0  0  0  0  0  0  0  0
   44.4925   -1.4003   45.0926 H   0  0  0  0  0  0  0  0  0  0  0  0
   45.8513   -2.0849   44.3653 H   0  0  0  0  0  0  0  0  0  0  0  0
   42.5441   -2.6086   45.0001 H   0  0  0  0  0  0  0  0  0  0  0  0
   43.6783   -3.8617   45.3477 H   0  0  0  0  0  0  0  0  0  0  0  0
   38.1816   -3.8015   42.9469 H   0  0  0  0  0  0  0  0  0  0  0  0
   36.5586   -4.0385   41.2490 H   0  0  0  0  0  0  0  0  0  0  0  0
   40.0694   -7.1943   41.5930 H   0  0  0  0  0  0  0  0  0  0  0  0
   40.7839   -8.7553   39.4505 H   0  0  0  0  0  0  0  0  0  0  0  0
   40.6135   -7.3490   38.6327 H   0  0  0  0  0  0  0  0  0  0  0  0
   39.4174   -8.7202   36.9237 H   0  0  0  0  0  0  0  0  0  0  0  0
   40.1790   -9.9986   37.6946 H   0  0  0  0  0  0  0  0  0  0  0  0
   41.1462   -8.6418   35.7501 H   0  0  0  0  0  0  0  0  0  0  0  0
   41.6445  -10.8489   36.0295 H   0  0  0  0  0  0  0  0  0  0  0  0
   42.5451  -10.4299   37.3378 H   0  0  0  0  0  0  0  0  0  0  0  0
   43.1614   -9.6785   34.6107 H   0  0  0  0  0  0  0  0  0  0  0  0
   43.9921  -10.7761   35.4889 H   0  0  0  0  0  0  0  0  0  0  0  0
   44.6413   -9.0607   37.0311 H   0  0  0  0  0  0  0  0  0  0  0  0
   43.2315   -7.2480   35.2529 H   0  0  0  0  0  0  0  0  0  0  0  0
   44.0875   -6.7753   36.5589 H   0  0  0  0  0  0  0  0  0  0  0  0
   42.5853   -7.9048   38.0019 H   0  0  0  0  0  0  0  0  0  0  0  0
   41.7309   -6.8850   37.0302 H   0  0  0  0  0  0  0  0  0  0  0  0
   40.1080   -8.1399   44.4719 H   0  0  0  0  0  0  0  0  0  0  0  0
   39.0051   -7.1628   45.2548 H   0  0  0  0  0  0  0  0  0  0  0  0
   42.3601   -8.1614   45.6985 H   0  0  0  0  0  0  0  0  0  0  0  0
   42.3127   -7.9579   47.3293 H   0  0  0  0  0  0  0  0  0  0  0  0
   42.0677   -5.6380   47.0970 H   0  0  0  0  0  0  0  0  0  0  0  0
   43.3544   -6.0884   46.1911 H   0  0  0  0  0  0  0  0  0  0  0  0
   39.6985  -10.9394   45.4812 H   0  0  0  0  0  0  0  0  0  0  0  0
   41.0840  -10.1190   45.1969 H   0  0  0  0  0  0  0  0  0  0  0  0
   41.0174  -11.1994   46.4131 H   0  0  0  0  0  0  0  0  0  0  0  0
   43.0185   -1.5160   42.5769 H   0  0  0  0  0  0  0  0  0  0  0  0
  1  2  1  0  0  0  0
  1 48  1  0  0  0  0
  1 49  1  0  0  0  0
  1 50  1  0  0  0  0
  2  3  1  0  0  0  0
  2  4  1  0  0  0  0
  2 51  1  0  0  0  0
  3 52  1  0  0  0  0
  3 53  1  0  0  0  0
  3 54  1  0  0  0  0
  4  5  1  0  0  0  0
  4  9  1  0  0  0  0
  4 55  1  1  0  0  0
  5  6  1  0  0  0  0
  5 56  1  0  0  0  0
  5 57  1  0  0  0  0
  6  7  1  0  0  0  0
  6 58  1  0  0  0  0
  6 59  1  0  0  0  0
  7  8  1  0  0  0  0
  7 10  1  0  0  0  0
  7 60  1  6  0  0  0
  8  9  1  0  0  0  0
  8 61  1  0  0  0  0
  8 62  1  0  0  0  0
  9 63  1  0  0  0  0
  9 64  1  0  0  0  0
 10 11  1  0  0  0  0
 10 65  1  0  0  0  0
 10 66  1  0  0  0  0
 11 12  1  0  0  0  0
 11 46  1  0  0  0  0
 11 47  1  6  0  0  0
 12 13  1  0  0  0  0
 12 67  1  0  0  0  0
 12 68  1  0  0  0  0
 13 14  1  0  0  0  0
 13 17  1  0  0  0  0
 14 15  2  0  0  0  0
 14 41  1  0  0  0  0
 15 16  1  0  0  0  0
 15 38  1  0  0  0  0
 16 17  2  0  0  0  0
 16 18  1  0  0  0  0
 18 19  2  0  0  0  0
 18 23  1  0  0  0  0
 19 20  1  0  0  0  0
 19 69  1  0  0  0  0
 20 21  2  0  0  0  0
 20 70  1  0  0  0  0
 21 22  1  0  0  0  0
 21 34  1  0  0  0  0
 22 23  2  0  0  0  0
 22 24  1  0  0  0  0
 23 71  1  0  0  0  0
 24 25  1  0  0  0  0
 25 26  1  0  0  0  0
 25 72  1  0  0  0  0
 25 73  1  0  0  0  0
 26 27  1  0  0  0  0
 26 74  1  0  0  0  0
 26 75  1  0  0  0  0
 27 28  1  0  0  0  0
 27 32  1  0  0  0  0
 27 76  1  6  0  0  0
 28 29  1  0  0  0  0
 28 77  1  0  0  0  0
 28 78  1  0  0  0  0
 29 30  1  0  0  0  0
 29 79  1  0  0  0  0
 29 80  1  0  0  0  0
 30 31  1  0  0  0  0
 30 33  1  0  0  0  0
 30 81  1  1  0  0  0
 31 32  1  0  0  0  0
 31 82  1  0  0  0  0
 31 83  1  0  0  0  0
 32 84  1  0  0  0  0
 32 85  1  0  0  0  0
 34 35  1  0  0  0  0
 34 36  1  0  0  0  0
 34 37  1  0  0  0  0
 38 39  1  0  0  0  0
 38 86  1  0  0  0  0
 38 87  1  0  0  0  0
 39 40  1  0  0  0  0
 39 42  1  0  0  0  0
 40 41  1  0  0  0  0
 40 88  1  0  0  0  0
 40 89  1  0  0  0  0
 41 90  1  0  0  0  0
 41 91  1  0  0  0  0
 42 43  2  0  0  0  0
 42 44  2  0  0  0  0
 42 45  1  0  0  0  0
 45 92  1  0  0  0  0
 45 93  1  0  0  0  0
 45 94  1  0  0  0  0
 46 95  1  0  0  0  0
M  CHG  3   2   1   7   1  27   1
M  END
