CatS_371:1_D
 OpenBabel12041818463D

 96101  0  0  0  0  0  0  0  0999 V2000
   39.7335  -10.5452   45.2763 C   0  0  0  0  0  0  0  0  0  0  0  0
   39.3584   -9.2556   46.4949 S   0  0  0  0  0  0  0  0  0  0  0  0
   39.9595   -9.6364   47.7311 O   0  0  0  0  0  0  0  0  0  0  0  0
   37.9528   -9.0151   46.4812 O   0  0  0  0  0  0  0  0  0  0  0  0
   40.0886   -7.8747   46.0446 N   0  0  0  0  0  0  0  0  0  0  0  0
   41.5652   -7.8198   46.1163 C   0  0  0  0  0  0  0  0  0  0  0  0
   42.0931   -6.3701   46.0303 C   0  0  0  0  0  0  0  0  0  0  0  0
   41.4688   -5.6494   44.8500 C   0  0  0  0  0  0  0  0  0  0  0  0
   40.3701   -6.1086   44.2517 C   0  0  0  0  0  0  0  0  0  0  0  0
   40.1514   -5.1834   43.2048 C   0  0  0  0  0  0  0  0  0  0  0  0
   41.0857   -4.2545   43.2653 N   0  0  0  0  0  0  0  0  0  0  0  0
   41.9352   -4.5064   44.2911 N   0  0  0  0  0  0  0  0  0  0  0  0
   43.0061   -3.6156   44.7556 C   0  0  0  0  0  0  0  0  0  0  0  0
   43.4803   -2.4787   43.8363 C   0  0  0  0  0  0  0  0  0  0  0  0
   45.0197   -2.3289   43.8726 C   0  0  0  0  0  0  0  0  0  0  0  0
   45.6917   -2.3777   42.5187 N   0  3  0  0  0  0  0  0  0  0  0  0
   44.8425   -1.7778   41.4259 C   0  0  0  0  0  0  0  0  0  0  0  0
   45.5718   -1.8832   40.0707 C   0  0  0  0  0  0  0  0  0  0  0  0
   46.8826   -1.2893   40.1421 O   0  0  0  0  0  0  0  0  0  0  0  0
   47.7169   -1.9206   41.1310 C   0  0  0  0  0  0  0  0  0  0  0  0
   47.0833   -1.7937   42.5295 C   0  0  0  0  0  0  0  0  0  0  0  0
   39.0938   -5.2022   42.2076 C   0  0  0  0  0  0  0  0  0  0  0  0
   37.9512   -4.4513   42.4222 C   0  0  0  0  0  0  0  0  0  0  0  0
   36.9300   -4.4541   41.5039 C   0  0  0  0  0  0  0  0  0  0  0  0
   37.0402   -5.2060   40.3553 C   0  0  0  0  0  0  0  0  0  0  0  0
   38.1699   -5.9633   40.1225 C   0  0  0  0  0  0  0  0  0  0  0  0
   39.1938   -5.9578   41.0465 C   0  0  0  0  0  0  0  0  0  0  0  0
   38.1171   -6.7715   38.8330 C   0  0  0  0  0  0  0  0  0  0  0  0
   38.4975   -8.2649   38.7392 C   0  0  0  0  0  0  0  0  0  0  0  0
   39.8716   -8.5107   38.1143 C   0  0  0  0  0  0  0  0  0  0  0  0
   40.8193   -7.5125   38.1598 C   0  0  0  0  0  0  0  0  0  0  0  0
   42.0701   -7.7120   37.6173 C   0  0  0  0  0  0  0  0  0  0  0  0
   42.3899   -8.9145   37.0269 C   0  0  0  0  0  0  0  0  0  0  0  0
   41.4553   -9.9242   36.9719 C   0  0  0  0  0  0  0  0  0  0  0  0
   40.2063   -9.7065   37.5109 C   0  0  0  0  0  0  0  0  0  0  0  0
   41.7611  -11.2939   36.3739 C   0  0  0  0  0  0  0  0  0  0  0  0
   40.8816  -12.4333   36.8319 N   0  3  0  0  0  0  0  0  0  0  0  0
   40.0452  -13.0879   35.7602 C   0  0  0  0  0  0  0  0  0  0  0  0
   38.8848  -12.1875   35.2778 C   0  0  0  0  0  0  0  0  0  0  0  0
   38.3323  -12.7586   33.9550 C   0  0  0  0  0  0  0  0  0  0  0  0
   37.1047  -11.9459   33.4970 C   0  0  0  0  0  0  0  0  0  0  0  0
   36.0843  -11.9393   34.5145 O   0  0  0  0  0  0  0  0  0  0  0  0
   36.5451  -11.3418   35.7415 C   0  0  0  0  0  0  0  0  0  0  0  0
   37.7416  -12.1234   36.3194 C   0  0  0  0  0  0  0  0  0  0  0  0
   35.7427   -5.2069   39.1931 Cl  0  0  0  0  0  0  0  0  0  0  0  0
   39.6449   -7.3632   44.7235 C   0  0  0  0  0  0  0  0  0  0  0  0
   40.3171  -10.1585   44.5622 H   0  0  0  0  0  0  0  0  0  0  0  0
   40.2063  -11.3048   45.7229 H   0  0  0  0  0  0  0  0  0  0  0  0
   38.8839  -10.8834   44.8717 H   0  0  0  0  0  0  0  0  0  0  0  0
   41.9469   -8.3509   45.3598 H   0  0  0  0  0  0  0  0  0  0  0  0
   41.8466   -8.1988   46.9978 H   0  0  0  0  0  0  0  0  0  0  0  0
   43.0870   -6.3857   45.9218 H   0  0  0  0  0  0  0  0  0  0  0  0
   41.8493   -5.8858   46.8704 H   0  0  0  0  0  0  0  0  0  0  0  0
   43.8018   -4.1889   44.9510 H   0  0  0  0  0  0  0  0  0  0  0  0
   42.5999   -3.1384   45.5348 H   0  0  0  0  0  0  0  0  0  0  0  0
   43.0603   -1.6212   44.1334 H   0  0  0  0  0  0  0  0  0  0  0  0
   43.2086   -2.6976   42.8991 H   0  0  0  0  0  0  0  0  0  0  0  0
   45.3926   -3.0670   44.4349 H   0  0  0  0  0  0  0  0  0  0  0  0
   45.2060   -1.4202   44.2462 H   0  0  0  0  0  0  0  0  0  0  0  0
   45.7827   -3.2587   42.3041 H   0  0  0  0  0  0  0  0  0  0  0  0
   44.6632   -0.8163   41.6342 H   0  0  0  0  0  0  0  0  0  0  0  0
   43.9781   -2.2778   41.3712 H   0  0  0  0  0  0  0  0  0  0  0  0
   45.0344   -1.4125   39.3710 H   0  0  0  0  0  0  0  0  0  0  0  0
   45.6739   -2.8505   39.8385 H   0  0  0  0  0  0  0  0  0  0  0  0
   48.6162   -1.4832   41.1331 H   0  0  0  0  0  0  0  0  0  0  0  0
   47.8096   -2.8903   40.9052 H   0  0  0  0  0  0  0  0  0  0  0  0
   47.6448   -2.2837   43.1963 H   0  0  0  0  0  0  0  0  0  0  0  0
   47.0322   -0.8268   42.7796 H   0  0  0  0  0  0  0  0  0  0  0  0
   37.8684   -3.9017   43.2536 H   0  0  0  0  0  0  0  0  0  0  0  0
   36.1071   -3.9105   41.6691 H   0  0  0  0  0  0  0  0  0  0  0  0
   40.0155   -6.5025   40.8790 H   0  0  0  0  0  0  0  0  0  0  0  0
   38.7146   -6.2954   38.1877 H   0  0  0  0  0  0  0  0  0  0  0  0
   37.1307   -6.8160   38.6748 H   0  0  0  0  0  0  0  0  0  0  0  0
   37.8082   -8.7337   38.1869 H   0  0  0  0  0  0  0  0  0  0  0  0
   38.5361   -8.6160   39.6748 H   0  0  0  0  0  0  0  0  0  0  0  0
   40.5981   -6.6369   38.5892 H   0  0  0  0  0  0  0  0  0  0  0  0
   42.7497   -6.9793   37.6525 H   0  0  0  0  0  0  0  0  0  0  0  0
   43.3006   -9.0544   36.6382 H   0  0  0  0  0  0  0  0  0  0  0  0
   39.5230  -10.4350   37.4637 H   0  0  0  0  0  0  0  0  0  0  0  0
   42.7069  -11.5241   36.6033 H   0  0  0  0  0  0  0  0  0  0  0  0
   41.5883  -11.2020   35.3932 H   0  0  0  0  0  0  0  0  0  0  0  0
   40.3622  -12.1798   37.5362 H   0  0  0  0  0  0  0  0  0  0  0  0
   41.4216  -13.0700   37.1912 H   0  0  0  0  0  0  0  0  0  0  0  0
   39.6642  -13.9379   36.1239 H   0  0  0  0  0  0  0  0  0  0  0  0
   40.6401  -13.2591   34.9748 H   0  0  0  0  0  0  0  0  0  0  0  0
   39.2368  -11.2605   35.1479 H   0  0  0  0  0  0  0  0  0  0  0  0
   38.0680  -13.7135   34.0903 H   0  0  0  0  0  0  0  0  0  0  0  0
   39.0417  -12.7003   33.2526 H   0  0  0  0  0  0  0  0  0  0  0  0
   36.7347  -12.3516   32.6612 H   0  0  0  0  0  0  0  0  0  0  0  0
   37.3910  -11.0030   33.3270 H   0  0  0  0  0  0  0  0  0  0  0  0
   35.7990  -11.3412   36.4072 H   0  0  0  0  0  0  0  0  0  0  0  0
   36.8397  -10.4057   35.5493 H   0  0  0  0  0  0  0  0  0  0  0  0
   38.0703  -11.6670   37.1463 H   0  0  0  0  0  0  0  0  0  0  0  0
   37.4482  -13.0530   36.5422 H   0  0  0  0  0  0  0  0  0  0  0  0
   38.6675   -7.1591   44.7790 H   0  0  0  0  0  0  0  0  0  0  0  0
   39.8570   -8.0784   44.0576 H   0  0  0  0  0  0  0  0  0  0  0  0
  1  2  1  0  0  0  0
  1 47  1  0  0  0  0
  1 48  1  0  0  0  0
  1 49  1  0  0  0  0
  2  3  2  0  0  0  0
  2  4  2  0  0  0  0
  2  5  1  0  0  0  0
  5  6  1  0  0  0  0
  5 46  1  0  0  0  0
  6  7  1  0  0  0  0
  6 50  1  0  0  0  0
  6 51  1  0  0  0  0
  7  8  1  0  0  0  0
  7 52  1  0  0  0  0
  7 53  1  0  0  0  0
  8  9  2  0  0  0  0
  8 12  1  0  0  0  0
  9 10  1  0  0  0  0
  9 46  1  0  0  0  0
 10 11  2  0  0  0  0
 10 22  1  0  0  0  0
 11 12  1  0  0  0  0
 12 13  1  0  0  0  0
 13 14  1  0  0  0  0
 13 54  1  0  0  0  0
 13 55  1  0  0  0  0
 14 15  1  0  0  0  0
 14 56  1  0  0  0  0
 14 57  1  0  0  0  0
 15 16  1  0  0  0  0
 15 58  1  0  0  0  0
 15 59  1  0  0  0  0
 16 17  1  0  0  0  0
 16 21  1  0  0  0  0
 16 60  1  0  0  0  0
 17 18  1  0  0  0  0
 17 61  1  0  0  0  0
 17 62  1  0  0  0  0
 18 19  1  0  0  0  0
 18 63  1  0  0  0  0
 18 64  1  0  0  0  0
 19 20  1  0  0  0  0
 20 21  1  0  0  0  0
 20 65  1  0  0  0  0
 20 66  1  0  0  0  0
 21 67  1  0  0  0  0
 21 68  1  0  0  0  0
 22 23  2  0  0  0  0
 22 27  1  0  0  0  0
 23 24  1  0  0  0  0
 23 69  1  0  0  0  0
 24 25  2  0  0  0  0
 24 70  1  0  0  0  0
 25 26  1  0  0  0  0
 25 45  1  0  0  0  0
 26 27  2  0  0  0  0
 26 28  1  0  0  0  0
 27 71  1  0  0  0  0
 28 29  1  0  0  0  0
 28 72  1  0  0  0  0
 28 73  1  0  0  0  0
 29 30  1  0  0  0  0
 29 74  1  0  0  0  0
 29 75  1  0  0  0  0
 30 31  2  0  0  0  0
 30 35  1  0  0  0  0
 31 32  1  0  0  0  0
 31 76  1  0  0  0  0
 32 33  2  0  0  0  0
 32 77  1  0  0  0  0
 33 34  1  0  0  0  0
 33 78  1  0  0  0  0
 34 35  2  0  0  0  0
 34 36  1  0  0  0  0
 35 79  1  0  0  0  0
 36 37  1  0  0  0  0
 36 80  1  0  0  0  0
 36 81  1  0  0  0  0
 37 38  1  0  0  0  0
 37 82  1  0  0  0  0
 37 83  1  0  0  0  0
 38 39  1  0  0  0  0
 38 84  1  0  0  0  0
 38 85  1  0  0  0  0
 39 40  1  0  0  0  0
 39 44  1  0  0  0  0
 39 86  1  0  0  0  0
 40 41  1  0  0  0  0
 40 87  1  0  0  0  0
 40 88  1  0  0  0  0
 41 42  1  0  0  0  0
 41 89  1  0  0  0  0
 41 90  1  0  0  0  0
 42 43  1  0  0  0  0
 43 44  1  0  0  0  0
 43 91  1  0  0  0  0
 43 92  1  0  0  0  0
 44 93  1  0  0  0  0
 44 94  1  0  0  0  0
 46 95  1  0  0  0  0
 46 96  1  0  0  0  0
M  CHG  2  16   1  37   1
M  END
