CatS_225:1_D
 OpenBabel12041818463D

 93 97  0  0  1  0  0  0  0  0999 V2000
   47.6984   -0.7474   39.0904 C   0  0  0  0  0  0  0  0  0  0  0  0
   47.1025   -2.1699   39.1126 C   0  0  0  0  0  0  0  0  0  0  0  0
   48.2499   -3.1460   38.7775 C   0  0  0  0  0  0  0  0  0  0  0  0
   46.4991   -2.4685   40.5144 C   0  0  2  0  0  0  0  0  0  0  0  0
   45.2481   -1.6121   40.8205 C   0  0  0  0  0  0  0  0  0  0  0  0
   44.5936   -2.0237   42.1607 C   0  0  0  0  0  0  0  0  0  0  0  0
   45.5882   -2.5175   43.1852 N   0  3  1  0  0  0  0  0  0  0  0  0
   46.9471   -1.8905   43.0062 C   0  0  0  0  0  0  0  0  0  0  0  0
   47.5574   -2.2648   41.6339 C   0  0  0  0  0  0  0  0  0  0  0  0
   45.0337   -2.4096   44.5842 C   0  0  0  0  0  0  0  0  0  0  0  0
   44.1341   -3.5851   45.0209 C   0  0  1  0  0  0  0  0  0  0  0  0
   42.6940   -3.3224   44.5382 C   0  0  0  0  0  0  0  0  0  0  0  0
   41.7711   -4.4197   44.1913 N   0  0  0  0  0  0  0  0  0  0  0  0
   41.4611   -5.5954   44.8083 C   0  0  0  0  0  0  0  0  0  0  0  0
   40.5153   -6.2867   44.1658 C   0  0  0  0  0  0  0  0  0  0  0  0
   40.2076   -5.4760   43.0513 C   0  0  0  0  0  0  0  0  0  0  0  0
   40.9579   -4.3959   43.1079 N   0  0  0  0  0  0  0  0  0  0  0  0
   39.2380   -5.7135   41.9950 C   0  0  0  0  0  0  0  0  0  0  0  0
   38.0040   -5.0873   42.0013 C   0  0  0  0  0  0  0  0  0  0  0  0
   37.1102   -5.2913   40.9766 C   0  0  0  0  0  0  0  0  0  0  0  0
   37.4080   -6.1166   39.9112 C   0  0  0  0  0  0  0  0  0  0  0  0
   38.6388   -6.7602   39.9196 C   0  0  0  0  0  0  0  0  0  0  0  0
   39.5363   -6.5617   40.9448 C   0  0  0  0  0  0  0  0  0  0  0  0
   39.1434   -7.8720   38.5998 S   0  0  0  0  0  0  0  0  0  0  0  0
   40.9079   -7.5613   38.3130 C   0  0  0  0  0  0  0  0  0  0  0  0
   41.6959   -8.8302   37.9275 C   0  0  0  0  0  0  0  0  0  0  0  0
   42.2725   -8.7899   36.5360 N   0  3  2  0  0  0  0  0  0  0  0  0
   42.5404  -10.1519   35.9597 C   0  0  0  0  0  0  0  0  0  0  0  0
   43.7129   -9.9462   34.9778 C   0  0  0  0  0  0  0  0  0  0  0  0
   44.0754   -8.4501   35.0490 C   0  0  1  0  0  0  0  0  0  0  0  0
   43.5178   -7.9647   36.3939 C   0  0  0  0  0  0  0  0  0  0  0  0
   45.4533   -8.2677   34.9988 F   0  0  0  0  0  0  0  0  0  0  0  0
   36.3288   -6.2269   38.8331 C   0  0  0  0  0  0  0  0  0  0  0  0
   35.1603   -5.5503   39.1717 F   0  0  0  0  0  0  0  0  0  0  0  0
   35.9750   -7.5529   38.6144 F   0  0  0  0  0  0  0  0  0  0  0  0
   36.7408   -5.6966   37.6156 F   0  0  0  0  0  0  0  0  0  0  0  0
   39.9820   -7.6295   44.6547 C   0  0  0  0  0  0  0  0  0  0  0  0
   40.1956   -7.8297   46.1066 N   0  0  0  0  0  0  0  0  0  0  0  0
   41.6215   -7.5764   46.4091 C   0  0  0  0  0  0  0  0  0  0  0  0
   42.0531   -6.1208   46.1075 C   0  0  0  0  0  0  0  0  0  0  0  0
   39.6028   -9.1892   46.8010 S   0  0  0  0  0  0  0  0  0  0  0  0
   40.0547   -9.2270   48.1482 O   0  0  0  0  0  0  0  0  0  0  0  0
   38.1834   -9.1603   46.7030 O   0  0  0  0  0  0  0  0  0  0  0  0
   40.2061  -10.6703   45.9336 C   0  0  0  0  0  0  0  0  0  0  0  0
   44.6205   -4.8258   44.4871 O   0  0  0  0  0  0  0  0  0  0  0  0
   46.0892   -2.2709   38.0995 O   0  0  0  0  0  0  0  0  0  0  0  0
   44.1470   -3.6551   46.0183 H   0  0  0  0  0  0  0  0  0  0  0  0
   43.6942   -7.9413   34.2771 H   0  0  0  0  0  0  0  0  0  0  0  0
   47.2448   -0.2155   38.3753 H   0  0  0  0  0  0  0  0  0  0  0  0
   47.5573   -0.3081   39.9776 H   0  0  0  0  0  0  0  0  0  0  0  0
   48.6796   -0.7963   38.9039 H   0  0  0  0  0  0  0  0  0  0  0  0
   48.0293   -3.6291   37.9303 H   0  0  0  0  0  0  0  0  0  0  0  0
   49.1032   -2.6376   38.6629 H   0  0  0  0  0  0  0  0  0  0  0  0
   48.3605   -3.8039   39.5225 H   0  0  0  0  0  0  0  0  0  0  0  0
   46.2148   -3.4270   40.4958 H   0  0  0  0  0  0  0  0  0  0  0  0
   44.5839   -1.7289   40.0822 H   0  0  0  0  0  0  0  0  0  0  0  0
   45.5323   -0.6560   40.8920 H   0  0  0  0  0  0  0  0  0  0  0  0
   43.9311   -2.7510   41.9817 H   0  0  0  0  0  0  0  0  0  0  0  0
   44.1597   -1.2070   42.5412 H   0  0  0  0  0  0  0  0  0  0  0  0
   45.7029   -3.4059   43.0213 H   0  0  0  0  0  0  0  0  0  0  0  0
   47.5539   -2.2095   43.7343 H   0  0  0  0  0  0  0  0  0  0  0  0
   46.8458   -0.8965   43.0468 H   0  0  0  0  0  0  0  0  0  0  0  0
   48.1799   -1.5344   41.3528 H   0  0  0  0  0  0  0  0  0  0  0  0
   48.0279   -3.1390   41.7535 H   0  0  0  0  0  0  0  0  0  0  0  0
   44.4980   -1.5672   44.6430 H   0  0  0  0  0  0  0  0  0  0  0  0
   45.8223   -2.4192   45.1990 H   0  0  0  0  0  0  0  0  0  0  0  0
   42.7717   -2.7507   43.7213 H   0  0  0  0  0  0  0  0  0  0  0  0
   42.2654   -2.9422   45.3578 H   0  0  0  0  0  0  0  0  0  0  0  0
   37.7601   -4.4810   42.7582 H   0  0  0  0  0  0  0  0  0  0  0  0
   36.2233   -4.8304   41.0037 H   0  0  0  0  0  0  0  0  0  0  0  0
   40.4157   -7.0376   40.9296 H   0  0  0  0  0  0  0  0  0  0  0  0
   41.3043   -7.1799   39.1481 H   0  0  0  0  0  0  0  0  0  0  0  0
   40.9755   -6.9268   37.5430 H   0  0  0  0  0  0  0  0  0  0  0  0
   41.0817   -9.6166   37.9941 H   0  0  0  0  0  0  0  0  0  0  0  0
   42.4683   -8.8958   38.5592 H   0  0  0  0  0  0  0  0  0  0  0  0
   41.6439   -8.3984   36.0032 H   0  0  0  0  0  0  0  0  0  0  0  0
   41.7337  -10.4975   35.4805 H   0  0  0  0  0  0  0  0  0  0  0  0
   42.7583  -10.8232   36.6681 H   0  0  0  0  0  0  0  0  0  0  0  0
   43.4374  -10.1951   34.0493 H   0  0  0  0  0  0  0  0  0  0  0  0
   44.4948  -10.5214   35.2183 H   0  0  0  0  0  0  0  0  0  0  0  0
   44.1592   -8.1413   37.1404 H   0  0  0  0  0  0  0  0  0  0  0  0
   43.3526   -6.9790   36.4268 H   0  0  0  0  0  0  0  0  0  0  0  0
   40.4460   -8.3615   44.1558 H   0  0  0  0  0  0  0  0  0  0  0  0
   38.9958   -7.6431   44.4892 H   0  0  0  0  0  0  0  0  0  0  0  0
   42.1807   -8.1977   45.8601 H   0  0  0  0  0  0  0  0  0  0  0  0
   41.7515   -7.7292   47.3888 H   0  0  0  0  0  0  0  0  0  0  0  0
   41.7540   -5.5327   46.8589 H   0  0  0  0  0  0  0  0  0  0  0  0
   43.0486   -6.1138   46.0125 H   0  0  0  0  0  0  0  0  0  0  0  0
   39.4244  -11.1700   45.5604 H   0  0  0  0  0  0  0  0  0  0  0  0
   40.8191  -10.4006   45.1909 H   0  0  0  0  0  0  0  0  0  0  0  0
   40.7064  -11.2542   46.5727 H   0  0  0  0  0  0  0  0  0  0  0  0
   45.5079   -4.7069   44.0287 H   0  0  0  0  0  0  0  0  0  0  0  0
   46.3866   -1.8406   37.2402 H   0  0  0  0  0  0  0  0  0  0  0  0
  1  2  1  0  0  0  0
  1 49  1  0  0  0  0
  1 50  1  0  0  0  0
  1 51  1  0  0  0  0
  2  3  1  0  0  0  0
  2  4  1  0  0  0  0
  2 46  1  0  0  0  0
  3 52  1  0  0  0  0
  3 53  1  0  0  0  0
  3 54  1  0  0  0  0
  4  5  1  0  0  0  0
  4  9  1  0  0  0  0
  4 55  1  1  0  0  0
  5  6  1  0  0  0  0
  5 56  1  0  0  0  0
  5 57  1  0  0  0  0
  6  7  1  0  0  0  0
  6 58  1  0  0  0  0
  6 59  1  0  0  0  0
  7  8  1  0  0  0  0
  7 10  1  0  0  0  0
  7 60  1  6  0  0  0
  8  9  1  0  0  0  0
  8 61  1  0  0  0  0
  8 62  1  0  0  0  0
  9 63  1  0  0  0  0
  9 64  1  0  0  0  0
 10 11  1  0  0  0  0
 10 65  1  0  0  0  0
 10 66  1  0  0  0  0
 11 12  1  0  0  0  0
 11 45  1  0  0  0  0
 11 47  1  1  0  0  0
 12 13  1  0  0  0  0
 12 67  1  0  0  0  0
 12 68  1  0  0  0  0
 13 14  1  0  0  0  0
 13 17  1  0  0  0  0
 14 15  2  0  0  0  0
 14 40  1  0  0  0  0
 15 16  1  0  0  0  0
 15 37  1  0  0  0  0
 16 17  2  0  0  0  0
 16 18  1  0  0  0  0
 18 19  2  0  0  0  0
 18 23  1  0  0  0  0
 19 20  1  0  0  0  0
 19 69  1  0  0  0  0
 20 21  2  0  0  0  0
 20 70  1  0  0  0  0
 21 22  1  0  0  0  0
 21 33  1  0  0  0  0
 22 23  2  0  0  0  0
 22 24  1  0  0  0  0
 23 71  1  0  0  0  0
 24 25  1  0  0  0  0
 25 26  1  0  0  0  0
 25 72  1  0  0  0  0
 25 73  1  0  0  0  0
 26 27  1  0  0  0  0
 26 74  1  0  0  0  0
 26 75  1  0  0  0  0
 27 28  1  0  0  0  0
 27 31  1  0  0  0  0
 27 76  1  6  0  0  0
 28 29  1  0  0  0  0
 28 77  1  0  0  0  0
 28 78  1  0  0  0  0
 29 30  1  0  0  0  0
 29 79  1  0  0  0  0
 29 80  1  0  0  0  0
 30 31  1  0  0  0  0
 30 32  1  0  0  0  0
 30 48  1  6  0  0  0
 31 81  1  0  0  0  0
 31 82  1  0  0  0  0
 33 34  1  0  0  0  0
 33 35  1  0  0  0  0
 33 36  1  0  0  0  0
 37 38  1  0  0  0  0
 37 83  1  0  0  0  0
 37 84  1  0  0  0  0
 38 39  1  0  0  0  0
 38 41  1  0  0  0  0
 39 40  1  0  0  0  0
 39 85  1  0  0  0  0
 39 86  1  0  0  0  0
 40 87  1  0  0  0  0
 40 88  1  0  0  0  0
 41 42  2  0  0  0  0
 41 43  2  0  0  0  0
 41 44  1  0  0  0  0
 44 89  1  0  0  0  0
 44 90  1  0  0  0  0
 44 91  1  0  0  0  0
 45 92  1  0  0  0  0
 46 93  1  0  0  0  0
M  CHG  2   7   1  27   1
M  END
