CatS_204:1_D
 OpenBabel12041818463D

 94 99  0  0  1  0  0  0  0  0999 V2000
   40.2612  -10.1064   47.3474 C   0  0  0  0  0  0  0  0  0  0  0  0
   39.9154   -9.6582   45.9433 C   0  0  0  0  0  0  0  0  0  0  0  0
   39.3259  -10.4157   45.1847 O   0  0  0  0  0  0  0  0  0  0  0  0
   40.2740   -8.3937   45.6312 N   0  0  0  0  0  0  0  0  0  0  0  0
   41.0223   -7.5221   46.5721 C   0  0  0  0  0  0  0  0  0  0  0  0
   41.8416   -6.3734   45.9393 C   0  0  0  0  0  0  0  0  0  0  0  0
   41.1438   -5.7554   44.7404 C   0  0  0  0  0  0  0  0  0  0  0  0
   40.2473   -6.4363   44.0226 C   0  0  0  0  0  0  0  0  0  0  0  0
   39.8596   -5.5204   43.0161 C   0  0  0  0  0  0  0  0  0  0  0  0
   40.5262   -4.4005   43.1984 N   0  0  0  0  0  0  0  0  0  0  0  0
   41.3472   -4.4978   44.2678 N   0  0  0  0  0  0  0  0  0  0  0  0
   42.2315   -3.4210   44.7385 C   0  0  0  0  0  0  0  0  0  0  0  0
   43.6674   -3.5279   44.1886 C   0  0  2  0  0  0  0  0  0  0  0  0
   44.1351   -2.2087   43.5289 C   0  0  0  0  0  0  0  0  0  0  0  0
   45.2582   -2.4091   42.5427 N   0  3  1  0  0  0  0  0  0  0  0  0
   45.0434   -1.6870   41.2360 C   0  0  0  0  0  0  0  0  0  0  0  0
   46.0668   -2.1400   40.1643 C   0  0  0  0  0  0  0  0  0  0  0  0
   47.3684   -2.7023   40.7836 C   0  0  2  0  0  0  0  0  0  0  0  0
   47.7164   -1.9326   42.0763 C   0  0  0  0  0  0  0  0  0  0  0  0
   46.6115   -2.1123   43.1464 C   0  0  0  0  0  0  0  0  0  0  0  0
   48.4028   -2.7870   39.7361 N   0  0  0  0  0  0  0  0  0  0  0  0
   49.5645   -1.8909   39.7355 C   0  0  0  0  0  0  0  0  0  0  0  0
   50.4950   -2.6668   38.7863 C   0  0  1  0  0  0  0  0  0  0  0  0
   49.5742   -3.4940   37.8750 C   0  0  0  0  0  0  0  0  0  0  0  0
   48.3586   -3.6842   38.7414 C   0  0  0  0  0  0  0  0  0  0  0  0
   47.4994   -4.5333   38.5511 O   0  0  0  0  0  0  0  0  0  0  0  0
   51.3389   -1.7852   38.0314 O   0  0  0  0  0  0  0  0  0  0  0  0
   43.7528   -4.6094   43.2494 O   0  0  0  0  0  0  0  0  0  0  0  0
   38.9040   -5.6999   41.9345 C   0  0  0  0  0  0  0  0  0  0  0  0
   37.8054   -4.8713   41.7780 C   0  0  0  0  0  0  0  0  0  0  0  0
   36.9267   -5.0570   40.7369 C   0  0  0  0  0  0  0  0  0  0  0  0
   37.1070   -6.0689   39.8166 C   0  0  0  0  0  0  0  0  0  0  0  0
   38.2062   -6.9007   39.9785 C   0  0  0  0  0  0  0  0  0  0  0  0
   39.0871   -6.7191   41.0196 C   0  0  0  0  0  0  0  0  0  0  0  0
   38.5500   -8.2504   38.8421 S   0  0  0  0  0  0  0  0  0  0  0  0
   40.0892   -7.8009   37.9995 C   0  0  0  0  0  0  0  0  0  0  0  0
   40.9346   -9.0630   37.7236 C   0  0  0  0  0  0  0  0  0  0  0  0
   41.8983   -8.9051   36.5768 N   0  3  0  0  0  0  0  0  0  0  0  0
   42.5702  -10.1891   36.1952 C   0  0  0  0  0  0  0  0  0  0  0  0
   43.7845   -9.7352   35.3649 C   0  0  0  0  0  0  0  0  0  0  0  0
   44.0444   -8.2609   35.7428 C   0  0  0  0  0  0  0  0  0  0  0  0
   42.9808   -7.8885   36.7910 C   0  0  0  0  0  0  0  0  0  0  0  0
   36.0732   -6.1774   38.6973 C   0  0  0  0  0  0  0  0  0  0  0  0
   35.4786   -7.4331   38.6058 F   0  0  0  0  0  0  0  0  0  0  0  0
   36.6500   -5.9178   37.4597 F   0  0  0  0  0  0  0  0  0  0  0  0
   35.0444   -5.2602   38.8805 F   0  0  0  0  0  0  0  0  0  0  0  0
   39.8184   -7.8648   44.3260 C   0  0  0  0  0  0  0  0  0  0  0  0
   44.2759   -3.7075   44.9616 H   0  0  0  0  0  0  0  0  0  0  0  0
   51.1207   -3.2566   39.2968 H   0  0  0  0  0  0  0  0  0  0  0  0
   40.7167   -9.3557   47.8258 H   0  0  0  0  0  0  0  0  0  0  0  0
   39.4265  -10.3601   47.8362 H   0  0  0  0  0  0  0  0  0  0  0  0
   40.8688  -10.8996   47.3075 H   0  0  0  0  0  0  0  0  0  0  0  0
   41.6533   -8.1007   47.0888 H   0  0  0  0  0  0  0  0  0  0  0  0
   40.3247   -7.0733   47.1306 H   0  0  0  0  0  0  0  0  0  0  0  0
   42.7283   -6.7324   45.6479 H   0  0  0  0  0  0  0  0  0  0  0  0
   41.9473   -5.6584   46.6304 H   0  0  0  0  0  0  0  0  0  0  0  0
   42.2682   -3.4521   45.7373 H   0  0  0  0  0  0  0  0  0  0  0  0
   41.8512   -2.5584   44.4048 H   0  0  0  0  0  0  0  0  0  0  0  0
   44.4451   -1.5845   44.2461 H   0  0  0  0  0  0  0  0  0  0  0  0
   43.3575   -1.8354   43.0230 H   0  0  0  0  0  0  0  0  0  0  0  0
   45.2666   -3.2973   42.3436 H   0  0  0  0  0  0  0  0  0  0  0  0
   45.1402   -0.7032   41.3866 H   0  0  0  0  0  0  0  0  0  0  0  0
   44.1254   -1.9041   40.9041 H   0  0  0  0  0  0  0  0  0  0  0  0
   46.2965   -1.3561   39.5874 H   0  0  0  0  0  0  0  0  0  0  0  0
   45.6439   -2.8744   39.6336 H   0  0  0  0  0  0  0  0  0  0  0  0
   47.2682   -3.6443   41.1040 H   0  0  0  0  0  0  0  0  0  0  0  0
   47.8133   -0.9604   41.8633 H   0  0  0  0  0  0  0  0  0  0  0  0
   48.5732   -2.2967   42.4418 H   0  0  0  0  0  0  0  0  0  0  0  0
   46.8669   -2.8676   43.7498 H   0  0  0  0  0  0  0  0  0  0  0  0
   46.5359   -1.2507   43.6482 H   0  0  0  0  0  0  0  0  0  0  0  0
   49.9598   -1.7912   40.6487 H   0  0  0  0  0  0  0  0  0  0  0  0
   49.3715   -0.9491   39.4602 H   0  0  0  0  0  0  0  0  0  0  0  0
   49.9918   -4.3700   37.6337 H   0  0  0  0  0  0  0  0  0  0  0  0
   49.3770   -3.0550   36.9983 H   0  0  0  0  0  0  0  0  0  0  0  0
   50.7961   -1.1416   37.4807 H   0  0  0  0  0  0  0  0  0  0  0  0
   44.6907   -4.7198   42.9028 H   0  0  0  0  0  0  0  0  0  0  0  0
   37.6494   -4.1292   42.4299 H   0  0  0  0  0  0  0  0  0  0  0  0
   36.1405   -4.4459   40.6448 H   0  0  0  0  0  0  0  0  0  0  0  0
   39.8706   -7.3330   41.1157 H   0  0  0  0  0  0  0  0  0  0  0  0
   40.6103   -7.1704   38.5746 H   0  0  0  0  0  0  0  0  0  0  0  0
   39.8679   -7.3614   37.1289 H   0  0  0  0  0  0  0  0  0  0  0  0
   40.3156   -9.8208   37.5175 H   0  0  0  0  0  0  0  0  0  0  0  0
   41.4818   -9.2337   38.5430 H   0  0  0  0  0  0  0  0  0  0  0  0
   41.4173   -8.6408   35.8482 H   0  0  0  0  0  0  0  0  0  0  0  0
   41.9592  -10.7653   35.6523 H   0  0  0  0  0  0  0  0  0  0  0  0
   42.8294  -10.7406   36.9881 H   0  0  0  0  0  0  0  0  0  0  0  0
   43.5867   -9.8148   34.3879 H   0  0  0  0  0  0  0  0  0  0  0  0
   44.5855  -10.3033   35.5538 H   0  0  0  0  0  0  0  0  0  0  0  0
   43.9596   -7.6753   34.9367 H   0  0  0  0  0  0  0  0  0  0  0  0
   44.9683   -8.1365   36.1046 H   0  0  0  0  0  0  0  0  0  0  0  0
   43.3523   -7.9506   37.7174 H   0  0  0  0  0  0  0  0  0  0  0  0
   42.6542   -6.9484   36.6928 H   0  0  0  0  0  0  0  0  0  0  0  0
   38.8194   -7.9014   44.3072 H   0  0  0  0  0  0  0  0  0  0  0  0
   40.2490   -8.4374   43.6283 H   0  0  0  0  0  0  0  0  0  0  0  0
  1  2  1  0  0  0  0
  1 50  1  0  0  0  0
  1 51  1  0  0  0  0
  1 52  1  0  0  0  0
  2  3  2  0  0  0  0
  2  4  1  0  0  0  0
  4  5  1  0  0  0  0
  4 47  1  0  0  0  0
  5  6  1  0  0  0  0
  5 53  1  0  0  0  0
  5 54  1  0  0  0  0
  6  7  1  0  0  0  0
  6 55  1  0  0  0  0
  6 56  1  0  0  0  0
  7  8  2  0  0  0  0
  7 11  1  0  0  0  0
  8  9  1  0  0  0  0
  8 47  1  0  0  0  0
  9 10  2  0  0  0  0
  9 29  1  0  0  0  0
 10 11  1  0  0  0  0
 11 12  1  0  0  0  0
 12 13  1  0  0  0  0
 12 57  1  0  0  0  0
 12 58  1  0  0  0  0
 13 14  1  0  0  0  0
 13 28  1  0  0  0  0
 13 48  1  1  0  0  0
 14 15  1  0  0  0  0
 14 59  1  0  0  0  0
 14 60  1  0  0  0  0
 15 16  1  0  0  0  0
 15 20  1  0  0  0  0
 15 61  1  6  0  0  0
 16 17  1  0  0  0  0
 16 62  1  0  0  0  0
 16 63  1  0  0  0  0
 17 18  1  0  0  0  0
 17 64  1  0  0  0  0
 17 65  1  0  0  0  0
 18 19  1  0  0  0  0
 18 21  1  0  0  0  0
 18 66  1  1  0  0  0
 19 20  1  0  0  0  0
 19 67  1  0  0  0  0
 19 68  1  0  0  0  0
 20 69  1  0  0  0  0
 20 70  1  0  0  0  0
 21 22  1  0  0  0  0
 21 25  1  0  0  0  0
 22 23  1  0  0  0  0
 22 71  1  0  0  0  0
 22 72  1  0  0  0  0
 23 24  1  0  0  0  0
 23 27  1  0  0  0  0
 23 49  1  1  0  0  0
 24 25  1  0  0  0  0
 24 73  1  0  0  0  0
 24 74  1  0  0  0  0
 25 26  2  0  0  0  0
 27 75  1  0  0  0  0
 28 76  1  0  0  0  0
 29 30  2  0  0  0  0
 29 34  1  0  0  0  0
 30 31  1  0  0  0  0
 30 77  1  0  0  0  0
 31 32  2  0  0  0  0
 31 78  1  0  0  0  0
 32 33  1  0  0  0  0
 32 43  1  0  0  0  0
 33 34  2  0  0  0  0
 33 35  1  0  0  0  0
 34 79  1  0  0  0  0
 35 36  1  0  0  0  0
 36 37  1  0  0  0  0
 36 80  1  0  0  0  0
 36 81  1  0  0  0  0
 37 38  1  0  0  0  0
 37 82  1  0  0  0  0
 37 83  1  0  0  0  0
 38 39  1  0  0  0  0
 38 42  1  0  0  0  0
 38 84  1  0  0  0  0
 39 40  1  0  0  0  0
 39 85  1  0  0  0  0
 39 86  1  0  0  0  0
 40 41  1  0  0  0  0
 40 87  1  0  0  0  0
 40 88  1  0  0  0  0
 41 42  1  0  0  0  0
 41 89  1  0  0  0  0
 41 90  1  0  0  0  0
 42 91  1  0  0  0  0
 42 92  1  0  0  0  0
 43 44  1  0  0  0  0
 43 45  1  0  0  0  0
 43 46  1  0  0  0  0
 47 93  1  0  0  0  0
 47 94  1  0  0  0  0
M  CHG  2  15   1  38   1
M  END
