CatS_267:1_D
 OpenBabel12041818463D

 91 96  0  0  0  0  0  0  0  0999 V2000
   51.7058   -7.9521   32.0987 C   0  0  0  0  0  0  0  0  0  0  0  0
   51.4552   -7.4857   33.5161 C   0  0  0  0  0  0  0  0  0  0  0  0
   51.8284   -6.3329   34.0528 C   0  0  0  0  0  0  0  0  0  0  0  0
   51.3930   -6.3359   35.4029 C   0  0  0  0  0  0  0  0  0  0  0  0
   50.7880   -7.5164   35.5490 C   0  0  0  0  0  0  0  0  0  0  0  0
   50.8059   -8.2218   34.4138 O   0  0  0  0  0  0  0  0  0  0  0  0
   50.1642   -8.0741   36.8190 C   0  0  0  0  0  0  0  0  0  0  0  0
   51.0851   -8.7184   37.6382 F   0  0  0  0  0  0  0  0  0  0  0  0
   49.1751   -8.9993   36.5021 F   0  0  0  0  0  0  0  0  0  0  0  0
   49.5674   -7.0728   37.5787 F   0  0  0  0  0  0  0  0  0  0  0  0
   51.6115   -5.2239   36.4191 C   0  0  0  0  0  0  0  0  0  0  0  0
   50.4313   -4.2863   36.4683 N   0  3  0  0  0  0  0  0  0  0  0  0
   50.5916   -3.0585   37.3357 C   0  0  0  0  0  0  0  0  0  0  0  0
   49.5225   -2.8777   38.4093 C   0  0  0  0  0  0  0  0  0  0  0  0
   49.4387   -1.7203   39.1569 C   0  0  0  0  0  0  0  0  0  0  0  0
   48.4634   -1.5749   40.1043 C   0  0  0  0  0  0  0  0  0  0  0  0
   47.5476   -2.5947   40.3247 C   0  0  0  0  0  0  0  0  0  0  0  0
   47.6276   -3.7668   39.5815 C   0  0  0  0  0  0  0  0  0  0  0  0
   48.6112   -3.8947   38.6313 C   0  0  0  0  0  0  0  0  0  0  0  0
   46.5439   -2.3475   41.3250 C   0  0  0  0  0  0  0  0  0  0  0  0
   45.7065   -2.2510   42.2054 C   0  0  0  0  0  0  0  0  0  0  0  0
   44.7401   -2.2852   43.2703 C   0  0  0  0  0  0  0  0  0  0  0  0
   43.7832   -3.2819   43.1777 C   0  0  0  0  0  0  0  0  0  0  0  0
   42.7879   -3.3992   44.1199 C   0  0  0  0  0  0  0  0  0  0  0  0
   42.7483   -2.4970   45.1716 C   0  0  0  0  0  0  0  0  0  0  0  0
   43.7080   -1.5145   45.2822 C   0  0  0  0  0  0  0  0  0  0  0  0
   44.7072   -1.4000   44.3440 C   0  0  0  0  0  0  0  0  0  0  0  0
   45.9071   -0.1532   44.5068 Cl  0  0  0  0  0  0  0  0  0  0  0  0
   41.8109   -4.4623   44.0003 C   0  0  0  0  0  0  0  0  0  0  0  0
   41.6689   -5.5797   44.8495 C   0  0  0  0  0  0  0  0  0  0  0  0
   40.6153   -6.2170   44.3413 C   0  0  0  0  0  0  0  0  0  0  0  0
   40.1206   -5.6246   43.2219 N   0  0  0  0  0  0  0  0  0  0  0  0
   40.8844   -4.5165   43.0664 N   0  0  0  0  0  0  0  0  0  0  0  0
   39.0295   -6.0189   42.3174 C   0  0  0  0  0  0  0  0  0  0  0  0
   39.3260   -6.1136   40.8021 C   0  0  0  0  0  0  0  0  0  0  0  0
   38.2021   -5.4554   39.9759 C   0  0  0  0  0  0  0  0  0  0  0  0
   36.8028   -5.9487   40.2407 N   0  3  0  0  0  0  0  0  0  0  0  0
   35.8221   -5.2677   39.3182 C   0  0  0  0  0  0  0  0  0  0  0  0
   35.8951   -5.8688   37.9032 C   0  0  0  0  0  0  0  0  0  0  0  0
   35.7047   -7.2944   37.9552 O   0  0  0  0  0  0  0  0  0  0  0  0
   36.7195   -7.9476   38.7398 C   0  0  0  0  0  0  0  0  0  0  0  0
   36.6804   -7.4537   40.1986 C   0  0  0  0  0  0  0  0  0  0  0  0
   40.0796   -7.4446   45.0495 C   0  0  0  0  0  0  0  0  0  0  0  0
   41.2543   -8.1598   45.7476 C   0  0  0  0  0  0  0  0  0  0  0  0
   41.9090   -7.2843   46.7434 N   0  0  0  0  0  0  0  0  0  0  0  0
   42.4310   -6.0616   46.0797 C   0  0  0  0  0  0  0  0  0  0  0  0
   42.8691   -8.0313   47.8303 S   0  0  0  0  0  0  0  0  0  0  0  0
   42.1290   -9.1142   48.3943 O   0  0  0  0  0  0  0  0  0  0  0  0
   43.3473   -7.0333   48.7287 O   0  0  0  0  0  0  0  0  0  0  0  0
   44.2937   -8.7297   46.9491 C   0  0  0  0  0  0  0  0  0  0  0  0
   52.2107   -7.2426   31.6069 H   0  0  0  0  0  0  0  0  0  0  0  0
   52.2392   -8.7979   32.1107 H   0  0  0  0  0  0  0  0  0  0  0  0
   50.8332   -8.1241   31.6417 H   0  0  0  0  0  0  0  0  0  0  0  0
   52.3247   -5.5975   33.5917 H   0  0  0  0  0  0  0  0  0  0  0  0
   52.4305   -4.7078   36.1683 H   0  0  0  0  0  0  0  0  0  0  0  0
   51.7206   -5.6391   37.3223 H   0  0  0  0  0  0  0  0  0  0  0  0
   50.2593   -4.0185   35.6151 H   0  0  0  0  0  0  0  0  0  0  0  0
   49.6798   -4.7403   36.7098 H   0  0  0  0  0  0  0  0  0  0  0  0
   50.5761   -2.2542   36.7416 H   0  0  0  0  0  0  0  0  0  0  0  0
   51.4565   -3.1748   37.8240 H   0  0  0  0  0  0  0  0  0  0  0  0
   50.0962   -0.9825   39.0045 H   0  0  0  0  0  0  0  0  0  0  0  0
   48.4098   -0.7320   40.6397 H   0  0  0  0  0  0  0  0  0  0  0  0
   46.9758   -4.5091   39.7369 H   0  0  0  0  0  0  0  0  0  0  0  0
   48.6695   -4.7349   38.0922 H   0  0  0  0  0  0  0  0  0  0  0  0
   43.8163   -3.9266   42.4141 H   0  0  0  0  0  0  0  0  0  0  0  0
   42.0195   -2.5595   45.8534 H   0  0  0  0  0  0  0  0  0  0  0  0
   43.6777   -0.8780   46.0528 H   0  0  0  0  0  0  0  0  0  0  0  0
   38.2916   -5.3545   42.4355 H   0  0  0  0  0  0  0  0  0  0  0  0
   38.8186   -6.9595   42.5837 H   0  0  0  0  0  0  0  0  0  0  0  0
   39.4050   -7.0761   40.5426 H   0  0  0  0  0  0  0  0  0  0  0  0
   40.1815   -5.6311   40.6146 H   0  0  0  0  0  0  0  0  0  0  0  0
   38.4038   -5.6080   39.0084 H   0  0  0  0  0  0  0  0  0  0  0  0
   38.2001   -4.4929   40.2477 H   0  0  0  0  0  0  0  0  0  0  0  0
   36.5825   -5.6905   41.0852 H   0  0  0  0  0  0  0  0  0  0  0  0
   36.0348   -4.2916   39.2739 H   0  0  0  0  0  0  0  0  0  0  0  0
   34.8982   -5.4039   39.6758 H   0  0  0  0  0  0  0  0  0  0  0  0
   36.7893   -5.6673   37.5034 H   0  0  0  0  0  0  0  0  0  0  0  0
   35.1727   -5.4659   37.3413 H   0  0  0  0  0  0  0  0  0  0  0  0
   37.6179   -7.7502   38.3475 H   0  0  0  0  0  0  0  0  0  0  0  0
   36.5492   -8.9330   38.7301 H   0  0  0  0  0  0  0  0  0  0  0  0
   35.8165   -7.7286   40.6205 H   0  0  0  0  0  0  0  0  0  0  0  0
   37.4450   -7.8582   40.7003 H   0  0  0  0  0  0  0  0  0  0  0  0
   39.6535   -8.0596   44.3858 H   0  0  0  0  0  0  0  0  0  0  0  0
   39.3928   -7.1772   45.7253 H   0  0  0  0  0  0  0  0  0  0  0  0
   41.9264   -8.4316   45.0588 H   0  0  0  0  0  0  0  0  0  0  0  0
   40.8935   -8.9605   46.2258 H   0  0  0  0  0  0  0  0  0  0  0  0
   42.4251   -5.3215   46.7521 H   0  0  0  0  0  0  0  0  0  0  0  0
   43.3412   -6.3093   45.7478 H   0  0  0  0  0  0  0  0  0  0  0  0
   45.1269   -8.2777   47.2675 H   0  0  0  0  0  0  0  0  0  0  0  0
   44.3537   -9.7116   47.1285 H   0  0  0  0  0  0  0  0  0  0  0  0
   44.1854   -8.5845   45.9657 H   0  0  0  0  0  0  0  0  0  0  0  0
  1  2  1  0  0  0  0
  1 51  1  0  0  0  0
  1 52  1  0  0  0  0
  1 53  1  0  0  0  0
  2  3  2  0  0  0  0
  2  6  1  0  0  0  0
  3  4  1  0  0  0  0
  3 54  1  0  0  0  0
  4  5  2  0  0  0  0
  4 11  1  0  0  0  0
  5  6  1  0  0  0  0
  5  7  1  0  0  0  0
  7  8  1  0  0  0  0
  7  9  1  0  0  0  0
  7 10  1  0  0  0  0
 11 12  1  0  0  0  0
 11 55  1  0  0  0  0
 11 56  1  0  0  0  0
 12 13  1  0  0  0  0
 12 57  1  0  0  0  0
 12 58  1  0  0  0  0
 13 14  1  0  0  0  0
 13 59  1  0  0  0  0
 13 60  1  0  0  0  0
 14 15  2  0  0  0  0
 14 19  1  0  0  0  0
 15 16  1  0  0  0  0
 15 61  1  0  0  0  0
 16 17  2  0  0  0  0
 16 62  1  0  0  0  0
 17 18  1  0  0  0  0
 17 20  1  0  0  0  0
 18 19  2  0  0  0  0
 18 63  1  0  0  0  0
 19 64  1  0  0  0  0
 20 21  3  0  0  0  0
 21 22  1  0  0  0  0
 22 23  2  0  0  0  0
 22 27  1  0  0  0  0
 23 24  1  0  0  0  0
 23 65  1  0  0  0  0
 24 25  2  0  0  0  0
 24 29  1  0  0  0  0
 25 26  1  0  0  0  0
 25 66  1  0  0  0  0
 26 27  2  0  0  0  0
 26 67  1  0  0  0  0
 27 28  1  0  0  0  0
 29 30  1  0  0  0  0
 29 33  2  0  0  0  0
 30 31  2  0  0  0  0
 30 46  1  0  0  0  0
 31 32  1  0  0  0  0
 31 43  1  0  0  0  0
 32 33  1  0  0  0  0
 32 34  1  0  0  0  0
 34 35  1  0  0  0  0
 34 68  1  0  0  0  0
 34 69  1  0  0  0  0
 35 36  1  0  0  0  0
 35 70  1  0  0  0  0
 35 71  1  0  0  0  0
 36 37  1  0  0  0  0
 36 72  1  0  0  0  0
 36 73  1  0  0  0  0
 37 38  1  0  0  0  0
 37 42  1  0  0  0  0
 37 74  1  0  0  0  0
 38 39  1  0  0  0  0
 38 75  1  0  0  0  0
 38 76  1  0  0  0  0
 39 40  1  0  0  0  0
 39 77  1  0  0  0  0
 39 78  1  0  0  0  0
 40 41  1  0  0  0  0
 41 42  1  0  0  0  0
 41 79  1  0  0  0  0
 41 80  1  0  0  0  0
 42 81  1  0  0  0  0
 42 82  1  0  0  0  0
 43 44  1  0  0  0  0
 43 83  1  0  0  0  0
 43 84  1  0  0  0  0
 44 45  1  0  0  0  0
 44 85  1  0  0  0  0
 44 86  1  0  0  0  0
 45 46  1  0  0  0  0
 45 47  1  0  0  0  0
 46 87  1  0  0  0  0
 46 88  1  0  0  0  0
 47 48  2  0  0  0  0
 47 49  2  0  0  0  0
 47 50  1  0  0  0  0
 50 89  1  0  0  0  0
 50 90  1  0  0  0  0
 50 91  1  0  0  0  0
M  CHG  2  12   1  37   1
M  END
