CatS_20:1_D
 OpenBabel12041818463D

 92 96  0  0  0  0  0  0  0  0999 V2000
   40.9596   -4.3074   50.7405 C   0  0  0  0  0  0  0  0  0  0  0  0
   40.8465   -2.8816   51.3140 C   0  0  0  0  0  0  0  0  0  0  0  0
   40.2277   -2.9654   52.7202 C   0  0  0  0  0  0  0  0  0  0  0  0
   40.0183   -1.9919   50.4228 N   0  3  0  0  0  0  0  0  0  0  0  0
   40.5256   -0.5806   50.2913 C   0  0  0  0  0  0  0  0  0  0  0  0
   40.6729   -0.1569   48.8174 C   0  0  0  0  0  0  0  0  0  0  0  0
   41.7076    1.3298   48.7440 S   0  0  0  0  0  0  0  0  0  0  0  0
   43.1845    0.9826   47.7744 C   0  0  0  0  0  0  0  0  0  0  0  0
   43.0947   -0.0197   46.8349 C   0  0  0  0  0  0  0  0  0  0  0  0
   44.1602   -0.3194   46.0040 C   0  0  0  0  0  0  0  0  0  0  0  0
   45.3378    0.3860   46.1800 C   0  0  0  0  0  0  0  0  0  0  0  0
   45.4295    1.3779   47.1248 C   0  0  0  0  0  0  0  0  0  0  0  0
   44.3562    1.7125   47.9247 C   0  0  0  0  0  0  0  0  0  0  0  0
   44.5680    2.8836   48.8832 C   0  0  0  0  0  0  0  0  0  0  0  0
   43.4958    3.7709   48.9144 F   0  0  0  0  0  0  0  0  0  0  0  0
   44.7367    2.4305   50.1870 F   0  0  0  0  0  0  0  0  0  0  0  0
   45.6906    3.6281   48.5475 F   0  0  0  0  0  0  0  0  0  0  0  0
   43.9795   -1.3102   44.9534 C   0  0  0  0  0  0  0  0  0  0  0  0
   44.6859   -1.4526   43.7384 C   0  0  0  0  0  0  0  0  0  0  0  0
   44.0154   -2.4044   43.0863 C   0  0  0  0  0  0  0  0  0  0  0  0
   43.0001   -2.9349   43.8245 N   0  0  0  0  0  0  0  0  0  0  0  0
   43.0107   -2.2010   44.9639 N   0  0  0  0  0  0  0  0  0  0  0  0
   42.1236   -4.1032   43.6181 C   0  0  0  0  0  0  0  0  0  0  0  0
   42.1138   -5.2631   44.6343 C   0  0  0  0  0  0  0  0  0  0  0  0
   40.7606   -6.0087   44.6511 C   0  0  0  0  0  0  0  0  0  0  0  0
   40.0424   -5.9118   43.3264 N   0  3  1  0  0  0  0  0  0  0  0  0
   39.4679   -7.2344   42.8860 C   0  0  0  0  0  0  0  0  0  0  0  0
   38.9208   -7.1315   41.4482 C   0  0  0  0  0  0  0  0  0  0  0  0
   37.8608   -6.0145   41.3586 C   0  0  1  0  0  0  0  0  0  0  0  0
   38.4635   -4.6714   41.8303 C   0  0  0  0  0  0  0  0  0  0  0  0
   39.0221   -4.8009   43.2620 C   0  0  0  0  0  0  0  0  0  0  0  0
   37.3224   -5.9901   39.9879 N   0  0  0  0  0  0  0  0  0  0  0  0
   37.6907   -4.9975   38.9687 C   0  0  0  0  0  0  0  0  0  0  0  0
   36.5780   -5.2364   37.9319 C   0  0  0  0  0  0  0  0  0  0  0  0
   36.1030   -6.6822   38.1469 C   0  0  0  0  0  0  0  0  0  0  0  0
   36.4798   -6.9484   39.5796 C   0  0  0  0  0  0  0  0  0  0  0  0
   36.0729   -7.8924   40.2435 O   0  0  0  0  0  0  0  0  0  0  0  0
   44.3942   -2.7621   41.6546 C   0  0  0  0  0  0  0  0  0  0  0  0
   45.2452   -1.6446   41.0077 C   0  0  0  0  0  0  0  0  0  0  0  0
   46.3908   -1.3170   41.8775 N   0  0  0  0  0  0  0  0  0  0  0  0
   45.8865   -0.7323   43.1414 C   0  0  0  0  0  0  0  0  0  0  0  0
   47.6445   -0.5479   41.1964 S   0  0  0  0  0  0  0  0  0  0  0  0
   47.9570   -1.3168   40.0368 O   0  0  0  0  0  0  0  0  0  0  0  0
   48.6432   -0.3821   42.2023 O   0  0  0  0  0  0  0  0  0  0  0  0
   47.1200    1.1091   40.6749 C   0  0  0  0  0  0  0  0  0  0  0  0
   40.4957   -4.3401   49.8552 H   0  0  0  0  0  0  0  0  0  0  0  0
   41.9229   -4.5497   50.6250 H   0  0  0  0  0  0  0  0  0  0  0  0
   40.5335   -4.9580   51.3692 H   0  0  0  0  0  0  0  0  0  0  0  0
   41.7594   -2.4767   51.3655 H   0  0  0  0  0  0  0  0  0  0  0  0
   39.3990   -2.4063   52.7452 H   0  0  0  0  0  0  0  0  0  0  0  0
   39.9995   -3.9155   52.9328 H   0  0  0  0  0  0  0  0  0  0  0  0
   40.8827   -2.6288   53.3968 H   0  0  0  0  0  0  0  0  0  0  0  0
   39.9397   -2.3793   49.6025 H   0  0  0  0  0  0  0  0  0  0  0  0
   39.1627   -1.9581   50.7335 H   0  0  0  0  0  0  0  0  0  0  0  0
   41.4166   -0.5129   50.7402 H   0  0  0  0  0  0  0  0  0  0  0  0
   39.8600    0.0288   50.7222 H   0  0  0  0  0  0  0  0  0  0  0  0
   39.7719    0.0370   48.4293 H   0  0  0  0  0  0  0  0  0  0  0  0
   41.0974   -0.8936   48.2910 H   0  0  0  0  0  0  0  0  0  0  0  0
   42.2449   -0.5402   46.7514 H   0  0  0  0  0  0  0  0  0  0  0  0
   46.1320    0.1705   45.6117 H   0  0  0  0  0  0  0  0  0  0  0  0
   46.2936    1.8689   47.2358 H   0  0  0  0  0  0  0  0  0  0  0  0
   42.3723   -4.4967   42.7330 H   0  0  0  0  0  0  0  0  0  0  0  0
   41.2066   -3.7157   43.7125 H   0  0  0  0  0  0  0  0  0  0  0  0
   42.2939   -4.8959   45.5468 H   0  0  0  0  0  0  0  0  0  0  0  0
   42.8207   -5.9163   44.3631 H   0  0  0  0  0  0  0  0  0  0  0  0
   40.1818   -5.6133   45.3643 H   0  0  0  0  0  0  0  0  0  0  0  0
   40.9439   -6.9752   44.8306 H   0  0  0  0  0  0  0  0  0  0  0  0
   40.6768   -5.7080   42.7053 H   0  0  0  0  0  0  0  0  0  0  0  0
   38.7274   -7.4960   43.5050 H   0  0  0  0  0  0  0  0  0  0  0  0
   40.1909   -7.9250   42.9077 H   0  0  0  0  0  0  0  0  0  0  0  0
   38.5075   -8.0040   41.1875 H   0  0  0  0  0  0  0  0  0  0  0  0
   39.6744   -6.9142   40.8279 H   0  0  0  0  0  0  0  0  0  0  0  0
   37.0910   -6.1890   41.9725 H   0  0  0  0  0  0  0  0  0  0  0  0
   37.7537   -3.9671   41.8141 H   0  0  0  0  0  0  0  0  0  0  0  0
   39.2107   -4.4195   41.2153 H   0  0  0  0  0  0  0  0  0  0  0  0
   39.4528   -3.9392   43.5302 H   0  0  0  0  0  0  0  0  0  0  0  0
   38.2701   -5.0130   43.8859 H   0  0  0  0  0  0  0  0  0  0  0  0
   38.5984   -5.1753   38.5883 H   0  0  0  0  0  0  0  0  0  0  0  0
   37.7521   -4.0576   39.3045 H   0  0  0  0  0  0  0  0  0  0  0  0
   36.9336   -5.1188   37.0047 H   0  0  0  0  0  0  0  0  0  0  0  0
   35.8275   -4.5849   38.0431 H   0  0  0  0  0  0  0  0  0  0  0  0
   36.5695   -7.3123   37.5261 H   0  0  0  0  0  0  0  0  0  0  0  0
   35.1280   -6.8095   37.9651 H   0  0  0  0  0  0  0  0  0  0  0  0
   43.5607   -2.8934   41.1179 H   0  0  0  0  0  0  0  0  0  0  0  0
   44.9354   -3.6028   41.6702 H   0  0  0  0  0  0  0  0  0  0  0  0
   44.6809   -0.8293   40.8776 H   0  0  0  0  0  0  0  0  0  0  0  0
   45.5861   -1.9618   40.1227 H   0  0  0  0  0  0  0  0  0  0  0  0
   46.6273   -0.7487   43.8129 H   0  0  0  0  0  0  0  0  0  0  0  0
   45.5801    0.1938   42.9212 H   0  0  0  0  0  0  0  0  0  0  0  0
   47.6337    1.7918   41.1946 H   0  0  0  0  0  0  0  0  0  0  0  0
   47.2961    1.2274   39.6976 H   0  0  0  0  0  0  0  0  0  0  0  0
   46.1411    1.2216   40.8451 H   0  0  0  0  0  0  0  0  0  0  0  0
  1  2  1  0  0  0  0
  1 46  1  0  0  0  0
  1 47  1  0  0  0  0
  1 48  1  0  0  0  0
  2  3  1  0  0  0  0
  2  4  1  0  0  0  0
  2 49  1  0  0  0  0
  3 50  1  0  0  0  0
  3 51  1  0  0  0  0
  3 52  1  0  0  0  0
  4  5  1  0  0  0  0
  4 53  1  0  0  0  0
  4 54  1  0  0  0  0
  5  6  1  0  0  0  0
  5 55  1  0  0  0  0
  5 56  1  0  0  0  0
  6  7  1  0  0  0  0
  6 57  1  0  0  0  0
  6 58  1  0  0  0  0
  7  8  1  0  0  0  0
  8  9  2  0  0  0  0
  8 13  1  0  0  0  0
  9 10  1  0  0  0  0
  9 59  1  0  0  0  0
 10 11  2  0  0  0  0
 10 18  1  0  0  0  0
 11 12  1  0  0  0  0
 11 60  1  0  0  0  0
 12 13  2  0  0  0  0
 12 61  1  0  0  0  0
 13 14  1  0  0  0  0
 14 15  1  0  0  0  0
 14 16  1  0  0  0  0
 14 17  1  0  0  0  0
 18 19  1  0  0  0  0
 18 22  2  0  0  0  0
 19 20  2  0  0  0  0
 19 41  1  0  0  0  0
 20 21  1  0  0  0  0
 20 38  1  0  0  0  0
 21 22  1  0  0  0  0
 21 23  1  0  0  0  0
 23 24  1  0  0  0  0
 23 62  1  0  0  0  0
 23 63  1  0  0  0  0
 24 25  1  0  0  0  0
 24 64  1  0  0  0  0
 24 65  1  0  0  0  0
 25 26  1  0  0  0  0
 25 66  1  0  0  0  0
 25 67  1  0  0  0  0
 26 27  1  0  0  0  0
 26 31  1  0  0  0  0
 26 68  1  6  0  0  0
 27 28  1  0  0  0  0
 27 69  1  0  0  0  0
 27 70  1  0  0  0  0
 28 29  1  0  0  0  0
 28 71  1  0  0  0  0
 28 72  1  0  0  0  0
 29 30  1  0  0  0  0
 29 32  1  0  0  0  0
 29 73  1  1  0  0  0
 30 31  1  0  0  0  0
 30 74  1  0  0  0  0
 30 75  1  0  0  0  0
 31 76  1  0  0  0  0
 31 77  1  0  0  0  0
 32 33  1  0  0  0  0
 32 36  1  0  0  0  0
 33 34  1  0  0  0  0
 33 78  1  0  0  0  0
 33 79  1  0  0  0  0
 34 35  1  0  0  0  0
 34 80  1  0  0  0  0
 34 81  1  0  0  0  0
 35 36  1  0  0  0  0
 35 82  1  0  0  0  0
 35 83  1  0  0  0  0
 36 37  2  0  0  0  0
 38 39  1  0  0  0  0
 38 84  1  0  0  0  0
 38 85  1  0  0  0  0
 39 40  1  0  0  0  0
 39 86  1  0  0  0  0
 39 87  1  0  0  0  0
 40 41  1  0  0  0  0
 40 42  1  0  0  0  0
 41 88  1  0  0  0  0
 41 89  1  0  0  0  0
 42 43  2  0  0  0  0
 42 44  2  0  0  0  0
 42 45  1  0  0  0  0
 45 90  1  0  0  0  0
 45 91  1  0  0  0  0
 45 92  1  0  0  0  0
M  CHG  2   4   1  26   1
M  END
