CatS_208:1_D
 OpenBabel12041818463D

 88 93  0  0  1  0  0  0  0  0999 V2000
   43.4467   -9.3878   46.5297 C   0  0  0  0  0  0  0  0  0  0  0  0
   42.2257   -8.4104   47.4531 S   0  0  0  0  0  0  0  0  0  0  0  0
   41.2834   -9.3029   48.0415 O   0  0  0  0  0  0  0  0  0  0  0  0
   42.9317   -7.5869   48.3801 O   0  0  0  0  0  0  0  0  0  0  0  0
   41.4036   -7.4350   46.4258 N   0  0  0  0  0  0  0  0  0  0  0  0
   40.5910   -8.1821   45.4394 C   0  0  0  0  0  0  0  0  0  0  0  0
   39.5268   -7.3025   44.7432 C   0  0  0  0  0  0  0  0  0  0  0  0
   40.1425   -6.0053   44.2565 C   0  0  0  0  0  0  0  0  0  0  0  0
   41.3249   -5.5796   44.7047 C   0  0  0  0  0  0  0  0  0  0  0  0
   41.5153   -4.3616   44.0106 C   0  0  0  0  0  0  0  0  0  0  0  0
   40.4697   -4.1468   43.2388 N   0  0  0  0  0  0  0  0  0  0  0  0
   39.5801   -5.1591   43.3578 N   0  0  0  0  0  0  0  0  0  0  0  0
   38.3267   -5.2786   42.6001 C   0  0  0  0  0  0  0  0  0  0  0  0
   38.4506   -4.8770   41.1215 C   0  0  0  0  0  0  0  0  0  0  0  0
   37.1520   -4.1701   40.6903 C   0  0  0  0  0  0  0  0  0  0  0  0
   36.3235   -4.9857   39.7346 N   0  3  1  0  0  0  0  0  0  0  0  0
   36.8476   -5.0306   38.3291 C   0  0  0  0  0  0  0  0  0  0  0  0
   36.1158   -6.2408   37.7306 C   0  0  0  0  0  0  0  0  0  0  0  0
   35.8944   -7.2128   38.9057 C   0  0  2  0  0  0  0  0  0  0  0  0
   36.1193   -6.4006   40.1945 C   0  0  0  0  0  0  0  0  0  0  0  0
   36.8361   -8.2939   38.8411 O   0  0  0  0  0  0  0  0  0  0  0  0
   42.6449   -3.4520   44.0756 C   0  0  0  0  0  0  0  0  0  0  0  0
   42.8203   -2.6190   45.1718 C   0  0  0  0  0  0  0  0  0  0  0  0
   43.9073   -1.7754   45.2464 C   0  0  0  0  0  0  0  0  0  0  0  0
   44.8335   -1.7397   44.2312 C   0  0  0  0  0  0  0  0  0  0  0  0
   44.6675   -2.5672   43.1219 C   0  0  0  0  0  0  0  0  0  0  0  0
   43.5724   -3.4216   43.0561 C   0  0  0  0  0  0  0  0  0  0  0  0
   45.6208   -2.5846   42.0421 C   0  0  0  0  0  0  0  0  0  0  0  0
   46.4753   -2.5933   41.1701 C   0  0  0  0  0  0  0  0  0  0  0  0
   47.5365   -2.5856   40.1966 C   0  0  0  0  0  0  0  0  0  0  0  0
   48.8287   -2.8927   40.6075 C   0  0  0  0  0  0  0  0  0  0  0  0
   49.8679   -2.8119   39.7176 C   0  0  0  0  0  0  0  0  0  0  0  0
   49.6444   -2.4274   38.4111 C   0  0  0  0  0  0  0  0  0  0  0  0
   48.3560   -2.1502   37.9929 C   0  0  0  0  0  0  0  0  0  0  0  0
   47.3050   -2.2306   38.8720 C   0  0  0  0  0  0  0  0  0  0  0  0
   50.8549   -2.2681   37.5018 C   0  0  0  0  0  0  0  0  0  0  0  0
   50.7950   -3.0000   36.1841 N   0  3  0  0  0  0  0  0  0  0  0  0
   51.7494   -4.1631   36.0501 C   0  0  0  0  0  0  0  0  0  0  0  0
   51.1188   -5.5362   36.2428 C   0  0  0  0  0  0  0  0  0  0  0  0
   50.7393   -5.9411   37.5037 C   0  0  0  0  0  0  0  0  0  0  0  0
   50.1555   -7.1727   37.6928 C   0  0  0  0  0  0  0  0  0  0  0  0
   49.9501   -8.0099   36.6190 C   0  0  0  0  0  0  0  0  0  0  0  0
   50.3262   -7.6101   35.3565 C   0  0  0  0  0  0  0  0  0  0  0  0
   50.9045   -6.3756   35.1708 C   0  0  0  0  0  0  0  0  0  0  0  0
   49.2166   -9.5686   36.8561 Cl  0  0  0  0  0  0  0  0  0  0  0  0
   46.2062   -0.6728   44.3475 Cl  0  0  0  0  0  0  0  0  0  0  0  0
   42.1539   -6.3632   45.7207 C   0  0  0  0  0  0  0  0  0  0  0  0
   34.9755   -7.6061   38.8772 H   0  0  0  0  0  0  0  0  0  0  0  0
   43.3902   -9.1479   45.5606 H   0  0  0  0  0  0  0  0  0  0  0  0
   44.3654   -9.1915   46.8722 H   0  0  0  0  0  0  0  0  0  0  0  0
   43.2567  -10.3624   46.6479 H   0  0  0  0  0  0  0  0  0  0  0  0
   40.1287   -8.9340   45.9094 H   0  0  0  0  0  0  0  0  0  0  0  0
   41.2129   -8.5146   44.7303 H   0  0  0  0  0  0  0  0  0  0  0  0
   38.7924   -7.0983   45.3904 H   0  0  0  0  0  0  0  0  0  0  0  0
   39.1620   -7.8001   43.9561 H   0  0  0  0  0  0  0  0  0  0  0  0
   37.6400   -4.6935   43.0312 H   0  0  0  0  0  0  0  0  0  0  0  0
   38.0700   -6.2450   42.6159 H   0  0  0  0  0  0  0  0  0  0  0  0
   38.5948   -5.6925   40.5608 H   0  0  0  0  0  0  0  0  0  0  0  0
   39.2286   -4.2605   41.0004 H   0  0  0  0  0  0  0  0  0  0  0  0
   37.3906   -3.3048   40.2496 H   0  0  0  0  0  0  0  0  0  0  0  0
   36.6023   -4.0299   41.5137 H   0  0  0  0  0  0  0  0  0  0  0  0
   35.4967   -4.6028   39.6978 H   0  0  0  0  0  0  0  0  0  0  0  0
   37.8386   -5.1634   38.3167 H   0  0  0  0  0  0  0  0  0  0  0  0
   36.6905   -4.1837   37.8211 H   0  0  0  0  0  0  0  0  0  0  0  0
   36.6718   -6.6702   37.0188 H   0  0  0  0  0  0  0  0  0  0  0  0
   35.2516   -5.9764   37.3023 H   0  0  0  0  0  0  0  0  0  0  0  0
   35.3234   -6.4645   40.7964 H   0  0  0  0  0  0  0  0  0  0  0  0
   36.9002   -6.7404   40.7188 H   0  0  0  0  0  0  0  0  0  0  0  0
   37.1986   -8.4084   37.9097 H   0  0  0  0  0  0  0  0  0  0  0  0
   42.1511   -2.6311   45.9147 H   0  0  0  0  0  0  0  0  0  0  0  0
   44.0234   -1.1849   46.0451 H   0  0  0  0  0  0  0  0  0  0  0  0
   43.4567   -4.0189   42.2625 H   0  0  0  0  0  0  0  0  0  0  0  0
   48.9999   -3.1726   41.5520 H   0  0  0  0  0  0  0  0  0  0  0  0
   50.7958   -3.0333   40.0174 H   0  0  0  0  0  0  0  0  0  0  0  0
   48.1885   -1.8889   37.0424 H   0  0  0  0  0  0  0  0  0  0  0  0
   46.3751   -2.0344   38.5608 H   0  0  0  0  0  0  0  0  0  0  0  0
   51.6581   -2.5953   37.9997 H   0  0  0  0  0  0  0  0  0  0  0  0
   50.8885   -1.2967   37.2669 H   0  0  0  0  0  0  0  0  0  0  0  0
   50.9826   -2.4126   35.5147 H   0  0  0  0  0  0  0  0  0  0  0  0
   49.9422   -3.2673   36.0075 H   0  0  0  0  0  0  0  0  0  0  0  0
   52.4732   -4.0527   36.7313 H   0  0  0  0  0  0  0  0  0  0  0  0
   52.0875   -4.1409   35.1093 H   0  0  0  0  0  0  0  0  0  0  0  0
   50.8889   -5.3365   38.2860 H   0  0  0  0  0  0  0  0  0  0  0  0
   49.8803   -7.4598   38.6102 H   0  0  0  0  0  0  0  0  0  0  0  0
   50.1792   -8.2164   34.5750 H   0  0  0  0  0  0  0  0  0  0  0  0
   51.1712   -6.0853   34.2518 H   0  0  0  0  0  0  0  0  0  0  0  0
   42.9258   -6.7821   45.2425 H   0  0  0  0  0  0  0  0  0  0  0  0
   42.4417   -5.7083   46.4195 H   0  0  0  0  0  0  0  0  0  0  0  0
  1  2  1  0  0  0  0
  1 49  1  0  0  0  0
  1 50  1  0  0  0  0
  1 51  1  0  0  0  0
  2  3  2  0  0  0  0
  2  4  2  0  0  0  0
  2  5  1  0  0  0  0
  5  6  1  0  0  0  0
  5 47  1  0  0  0  0
  6  7  1  0  0  0  0
  6 52  1  0  0  0  0
  6 53  1  0  0  0  0
  7  8  1  0  0  0  0
  7 54  1  0  0  0  0
  7 55  1  0  0  0  0
  8  9  2  0  0  0  0
  8 12  1  0  0  0  0
  9 10  1  0  0  0  0
  9 47  1  0  0  0  0
 10 11  2  0  0  0  0
 10 22  1  0  0  0  0
 11 12  1  0  0  0  0
 12 13  1  0  0  0  0
 13 14  1  0  0  0  0
 13 56  1  0  0  0  0
 13 57  1  0  0  0  0
 14 15  1  0  0  0  0
 14 58  1  0  0  0  0
 14 59  1  0  0  0  0
 15 16  1  0  0  0  0
 15 60  1  0  0  0  0
 15 61  1  0  0  0  0
 16 17  1  0  0  0  0
 16 20  1  0  0  0  0
 16 62  1  6  0  0  0
 17 18  1  0  0  0  0
 17 63  1  0  0  0  0
 17 64  1  0  0  0  0
 18 19  1  0  0  0  0
 18 65  1  0  0  0  0
 18 66  1  0  0  0  0
 19 20  1  0  0  0  0
 19 21  1  0  0  0  0
 19 48  1  6  0  0  0
 20 67  1  0  0  0  0
 20 68  1  0  0  0  0
 21 69  1  0  0  0  0
 22 23  2  0  0  0  0
 22 27  1  0  0  0  0
 23 24  1  0  0  0  0
 23 70  1  0  0  0  0
 24 25  2  0  0  0  0
 24 71  1  0  0  0  0
 25 26  1  0  0  0  0
 25 46  1  0  0  0  0
 26 27  2  0  0  0  0
 26 28  1  0  0  0  0
 27 72  1  0  0  0  0
 28 29  3  0  0  0  0
 29 30  1  0  0  0  0
 30 31  2  0  0  0  0
 30 35  1  0  0  0  0
 31 32  1  0  0  0  0
 31 73  1  0  0  0  0
 32 33  2  0  0  0  0
 32 74  1  0  0  0  0
 33 34  1  0  0  0  0
 33 36  1  0  0  0  0
 34 35  2  0  0  0  0
 34 75  1  0  0  0  0
 35 76  1  0  0  0  0
 36 37  1  0  0  0  0
 36 77  1  0  0  0  0
 36 78  1  0  0  0  0
 37 38  1  0  0  0  0
 37 79  1  0  0  0  0
 37 80  1  0  0  0  0
 38 39  1  0  0  0  0
 38 81  1  0  0  0  0
 38 82  1  0  0  0  0
 39 40  2  0  0  0  0
 39 44  1  0  0  0  0
 40 41  1  0  0  0  0
 40 83  1  0  0  0  0
 41 42  2  0  0  0  0
 41 84  1  0  0  0  0
 42 43  1  0  0  0  0
 42 45  1  0  0  0  0
 43 44  2  0  0  0  0
 43 85  1  0  0  0  0
 44 86  1  0  0  0  0
 47 87  1  0  0  0  0
 47 88  1  0  0  0  0
M  CHG  2  16   1  37   1
M  END
