CatS_317:1_D
 OpenBabel12041818463D

 90 94  0  0  1  0  0  0  0  0999 V2000
   42.0744  -10.3113   38.2250 C   0  0  0  0  0  0  0  0  0  0  0  0
   41.7524   -9.5094   36.9522 C   0  0  0  0  0  0  0  0  0  0  0  0
   42.5616   -8.2036   36.9798 C   0  0  0  0  0  0  0  0  0  0  0  0
   40.2496   -9.1787   36.8698 C   0  0  0  0  0  0  0  0  0  0  0  0
   39.8307   -8.3332   37.9950 C   0  0  0  0  0  0  0  0  0  0  0  0
   39.4699   -7.6086   38.9087 C   0  0  0  0  0  0  0  0  0  0  0  0
   39.0443   -6.7473   39.9836 C   0  0  0  0  0  0  0  0  0  0  0  0
   39.8458   -6.5716   41.1029 C   0  0  0  0  0  0  0  0  0  0  0  0
   39.4601   -5.7113   42.1116 C   0  0  0  0  0  0  0  0  0  0  0  0
   38.2569   -5.0305   42.0032 C   0  0  0  0  0  0  0  0  0  0  0  0
   37.4448   -5.2241   40.9092 C   0  0  0  0  0  0  0  0  0  0  0  0
   37.8306   -6.0750   39.9013 C   0  0  0  0  0  0  0  0  0  0  0  0
   36.7950   -6.3125   38.5255 Cl  0  0  0  0  0  0  0  0  0  0  0  0
   40.3127   -5.5479   43.2739 C   0  0  0  0  0  0  0  0  0  0  0  0
   40.5874   -6.4586   44.3187 C   0  0  0  0  0  0  0  0  0  0  0  0
   41.4407   -5.7873   45.0964 C   0  0  0  0  0  0  0  0  0  0  0  0
   41.7151   -4.5414   44.6297 N   0  0  0  0  0  0  0  0  0  0  0  0
   40.9772   -4.4356   43.5035 N   0  0  0  0  0  0  0  0  0  0  0  0
   42.5064   -3.4488   45.2202 C   0  0  0  0  0  0  0  0  0  0  0  0
   42.6748   -2.1234   44.4444 C   0  0  2  0  0  0  0  0  0  0  0  0
   44.1378   -1.6349   44.4934 C   0  0  0  0  0  0  0  0  0  0  0  0
   44.6985   -1.2212   43.1545 N   0  3  1  0  0  0  0  0  0  0  0  0
   46.1897   -0.9933   43.2174 C   0  0  0  0  0  0  0  0  0  0  0  0
   46.7542   -0.5225   41.8608 C   0  0  0  0  0  0  0  0  0  0  0  0
   46.4059   -1.5667   40.7766 C   0  0  1  0  0  0  0  0  0  0  0  0
   44.8702   -1.6951   40.6867 C   0  0  0  0  0  0  0  0  0  0  0  0
   44.3090   -2.1677   42.0428 C   0  0  0  0  0  0  0  0  0  0  0  0
   47.0513   -1.3215   39.3868 C   0  0  0  0  0  0  0  0  0  0  0  0
   46.6615   -2.4228   38.3732 C   0  0  0  0  0  0  0  0  0  0  0  0
   47.3277   -3.7551   38.7667 C   0  0  0  0  0  0  0  0  0  0  0  0
   48.8185   -3.5588   38.8229 N   0  3  0  0  0  0  0  0  0  0  0  0
   49.2618   -2.4791   39.7724 C   0  0  0  0  0  0  0  0  0  0  0  0
   48.5891   -1.1424   39.3976 C   0  0  0  0  0  0  0  0  0  0  0  0
   41.7830   -1.1170   44.9503 O   0  0  0  0  0  0  0  0  0  0  0  0
   41.9786   -6.3804   46.3850 C   0  0  0  0  0  0  0  0  0  0  0  0
   41.6080   -7.8758   46.5255 C   0  0  0  0  0  0  0  0  0  0  0  0
   40.2299   -8.1864   46.0907 N   0  0  0  0  0  0  0  0  0  0  0  0
   40.0929   -7.8639   44.6491 C   0  0  0  0  0  0  0  0  0  0  0  0
   39.6928   -9.6215   46.6462 S   0  0  0  0  0  0  0  0  0  0  0  0
   38.3280   -9.7427   46.2437 O   0  0  0  0  0  0  0  0  0  0  0  0
   39.9253   -9.6705   48.0540 O   0  0  0  0  0  0  0  0  0  0  0  0
   40.6286  -10.9608   45.8636 C   0  0  0  0  0  0  0  0  0  0  0  0
   42.4391   -2.2952   43.4879 H   0  0  0  0  0  0  0  0  0  0  0  0
   41.2463  -10.7795   38.5330 H   0  0  0  0  0  0  0  0  0  0  0  0
   42.7884  -10.9835   38.0292 H   0  0  0  0  0  0  0  0  0  0  0  0
   42.3980   -9.6918   38.9403 H   0  0  0  0  0  0  0  0  0  0  0  0
   41.9942  -10.0583   36.1520 H   0  0  0  0  0  0  0  0  0  0  0  0
   41.9309   -7.4287   36.9380 H   0  0  0  0  0  0  0  0  0  0  0  0
   43.0979   -8.1562   37.8225 H   0  0  0  0  0  0  0  0  0  0  0  0
   43.1829   -8.1760   36.1967 H   0  0  0  0  0  0  0  0  0  0  0  0
   39.7253  -10.0301   36.8850 H   0  0  0  0  0  0  0  0  0  0  0  0
   40.0810   -8.6797   36.0197 H   0  0  0  0  0  0  0  0  0  0  0  0
   40.7085   -7.0715   41.1793 H   0  0  0  0  0  0  0  0  0  0  0  0
   37.9778   -4.3956   42.7237 H   0  0  0  0  0  0  0  0  0  0  0  0
   36.5701   -4.7435   40.8473 H   0  0  0  0  0  0  0  0  0  0  0  0
   43.4241   -3.8098   45.3859 H   0  0  0  0  0  0  0  0  0  0  0  0
   41.9735   -3.1820   46.0232 H   0  0  0  0  0  0  0  0  0  0  0  0
   44.7042   -2.3738   44.8583 H   0  0  0  0  0  0  0  0  0  0  0  0
   44.1484   -0.8192   45.0716 H   0  0  0  0  0  0  0  0  0  0  0  0
   44.3325   -0.4122   42.9505 H   0  0  0  0  0  0  0  0  0  0  0  0
   46.6386   -1.8477   43.4789 H   0  0  0  0  0  0  0  0  0  0  0  0
   46.3666   -0.2767   43.8922 H   0  0  0  0  0  0  0  0  0  0  0  0
   47.7471   -0.4228   41.9263 H   0  0  0  0  0  0  0  0  0  0  0  0
   46.3522    0.3602   41.6174 H   0  0  0  0  0  0  0  0  0  0  0  0
   46.8135   -2.4324   41.0673 H   0  0  0  0  0  0  0  0  0  0  0  0
   44.6313   -2.3569   39.9761 H   0  0  0  0  0  0  0  0  0  0  0  0
   44.4761   -0.8049   40.4581 H   0  0  0  0  0  0  0  0  0  0  0  0
   43.3117   -2.2153   41.9873 H   0  0  0  0  0  0  0  0  0  0  0  0
   44.6915   -3.0691   42.2457 H   0  0  0  0  0  0  0  0  0  0  0  0
   46.6721   -0.4421   39.0986 H   0  0  0  0  0  0  0  0  0  0  0  0
   46.9635   -2.1555   37.4581 H   0  0  0  0  0  0  0  0  0  0  0  0
   45.6682   -2.5382   38.3776 H   0  0  0  0  0  0  0  0  0  0  0  0
   47.1045   -4.4563   38.0895 H   0  0  0  0  0  0  0  0  0  0  0  0
   46.9926   -4.0492   39.6618 H   0  0  0  0  0  0  0  0  0  0  0  0
   49.2209   -4.3444   39.0456 H   0  0  0  0  0  0  0  0  0  0  0  0
   49.1296   -3.3701   37.9885 H   0  0  0  0  0  0  0  0  0  0  0  0
   50.2555   -2.3788   39.7222 H   0  0  0  0  0  0  0  0  0  0  0  0
   48.9969   -2.7302   40.7034 H   0  0  0  0  0  0  0  0  0  0  0  0
   48.8396   -0.4417   40.0657 H   0  0  0  0  0  0  0  0  0  0  0  0
   48.8972   -0.8595   38.4892 H   0  0  0  0  0  0  0  0  0  0  0  0
   40.9718   -1.0143   44.3632 H   0  0  0  0  0  0  0  0  0  0  0  0
   41.5977   -5.8755   47.1596 H   0  0  0  0  0  0  0  0  0  0  0  0
   42.9758   -6.3081   46.3687 H   0  0  0  0  0  0  0  0  0  0  0  0
   41.7063   -8.1386   47.4853 H   0  0  0  0  0  0  0  0  0  0  0  0
   42.2252   -8.3883   45.9286 H   0  0  0  0  0  0  0  0  0  0  0  0
   40.6220   -8.5254   44.1176 H   0  0  0  0  0  0  0  0  0  0  0  0
   39.1207   -7.9071   44.4190 H   0  0  0  0  0  0  0  0  0  0  0  0
   41.1220  -11.4688   46.5695 H   0  0  0  0  0  0  0  0  0  0  0  0
   40.0023  -11.5744   45.3827 H   0  0  0  0  0  0  0  0  0  0  0  0
   41.2781  -10.5783   45.2065 H   0  0  0  0  0  0  0  0  0  0  0  0
  1  2  1  0  0  0  0
  1 44  1  0  0  0  0
  1 45  1  0  0  0  0
  1 46  1  0  0  0  0
  2  3  1  0  0  0  0
  2  4  1  0  0  0  0
  2 47  1  0  0  0  0
  3 48  1  0  0  0  0
  3 49  1  0  0  0  0
  3 50  1  0  0  0  0
  4  5  1  0  0  0  0
  4 51  1  0  0  0  0
  4 52  1  0  0  0  0
  5  6  3  0  0  0  0
  6  7  1  0  0  0  0
  7  8  2  0  0  0  0
  7 12  1  0  0  0  0
  8  9  1  0  0  0  0
  8 53  1  0  0  0  0
  9 10  2  0  0  0  0
  9 14  1  0  0  0  0
 10 11  1  0  0  0  0
 10 54  1  0  0  0  0
 11 12  2  0  0  0  0
 11 55  1  0  0  0  0
 12 13  1  0  0  0  0
 14 15  1  0  0  0  0
 14 18  2  0  0  0  0
 15 16  2  0  0  0  0
 15 38  1  0  0  0  0
 16 17  1  0  0  0  0
 16 35  1  0  0  0  0
 17 18  1  0  0  0  0
 17 19  1  0  0  0  0
 19 20  1  0  0  0  0
 19 56  1  0  0  0  0
 19 57  1  0  0  0  0
 20 21  1  0  0  0  0
 20 34  1  0  0  0  0
 20 43  1  6  0  0  0
 21 22  1  0  0  0  0
 21 58  1  0  0  0  0
 21 59  1  0  0  0  0
 22 23  1  0  0  0  0
 22 27  1  0  0  0  0
 22 60  1  6  0  0  0
 23 24  1  0  0  0  0
 23 61  1  0  0  0  0
 23 62  1  0  0  0  0
 24 25  1  0  0  0  0
 24 63  1  0  0  0  0
 24 64  1  0  0  0  0
 25 26  1  0  0  0  0
 25 28  1  0  0  0  0
 25 65  1  1  0  0  0
 26 27  1  0  0  0  0
 26 66  1  0  0  0  0
 26 67  1  0  0  0  0
 27 68  1  0  0  0  0
 27 69  1  0  0  0  0
 28 29  1  0  0  0  0
 28 33  1  0  0  0  0
 28 70  1  0  0  0  0
 29 30  1  0  0  0  0
 29 71  1  0  0  0  0
 29 72  1  0  0  0  0
 30 31  1  0  0  0  0
 30 73  1  0  0  0  0
 30 74  1  0  0  0  0
 31 32  1  0  0  0  0
 31 75  1  0  0  0  0
 31 76  1  0  0  0  0
 32 33  1  0  0  0  0
 32 77  1  0  0  0  0
 32 78  1  0  0  0  0
 33 79  1  0  0  0  0
 33 80  1  0  0  0  0
 34 81  1  0  0  0  0
 35 36  1  0  0  0  0
 35 82  1  0  0  0  0
 35 83  1  0  0  0  0
 36 37  1  0  0  0  0
 36 84  1  0  0  0  0
 36 85  1  0  0  0  0
 37 38  1  0  0  0  0
 37 39  1  0  0  0  0
 38 86  1  0  0  0  0
 38 87  1  0  0  0  0
 39 40  2  0  0  0  0
 39 41  2  0  0  0  0
 39 42  1  0  0  0  0
 42 88  1  0  0  0  0
 42 89  1  0  0  0  0
 42 90  1  0  0  0  0
M  CHG  2  22   1  31   1
M  END
