CatS_307:1_D
 OpenBabel12041818463D

106113  0  0  1  0  0  0  0  0999 V2000
   38.5325   -4.8482   39.7797 C   0  0  0  0  0  0  0  0  0  0  0  0
   37.7607   -4.6603   41.4106 S   0  0  0  0  0  0  0  0  0  0  0  0
   36.4955   -5.3226   41.3655 O   0  0  0  0  0  0  0  0  0  0  0  0
   37.7531   -3.2713   41.7434 O   0  0  0  0  0  0  0  0  0  0  0  0
   38.6488   -5.4242   42.5443 N   0  0  0  0  0  0  0  0  0  0  0  0
   38.8538   -6.8846   42.4139 C   0  0  0  0  0  0  0  0  0  0  0  0
   39.4433   -7.5141   43.6992 C   0  0  0  0  0  0  0  0  0  0  0  0
   40.6793   -6.7541   44.1376 C   0  0  0  0  0  0  0  0  0  0  0  0
   40.8979   -5.5094   43.7114 C   0  0  0  0  0  0  0  0  0  0  0  0
   42.1155   -5.1547   44.3290 C   0  0  0  0  0  0  0  0  0  0  0  0
   42.5118   -6.1644   45.0765 N   0  0  0  0  0  0  0  0  0  0  0  0
   41.6510   -7.2064   44.9748 N   0  0  0  0  0  0  0  0  0  0  0  0
   41.8723   -8.5258   45.5886 C   0  0  0  0  0  0  0  0  0  0  0  0
   41.1450   -8.7869   46.9219 C   0  0  0  0  0  0  0  0  0  0  0  0
   39.6625   -9.1741   46.7225 C   0  0  0  0  0  0  0  0  0  0  0  0
   39.4497  -10.6380   46.4267 N   0  3  0  0  0  0  0  0  0  0  0  0
   40.6515  -11.4907   46.7298 C   0  0  0  0  0  0  0  0  0  0  0  0
   40.1912  -12.9612   46.7773 C   0  0  0  0  0  0  0  0  0  0  0  0
   39.0897  -13.2716   45.8416 N   0  0  0  0  0  0  0  0  0  0  0  0
   39.0351  -12.3858   44.6589 C   0  0  0  0  0  0  0  0  0  0  0  0
   38.9324  -10.8869   45.0320 C   0  0  0  0  0  0  0  0  0  0  0  0
   38.6164  -14.5917   45.7713 C   0  0  0  0  0  0  0  0  0  0  0  0
   38.5224  -15.2532   44.5564 C   0  0  0  0  0  0  0  0  0  0  0  0
   38.0631  -16.5472   44.4975 C   0  0  0  0  0  0  0  0  0  0  0  0
   37.6877  -17.1990   45.6503 C   0  0  0  0  0  0  0  0  0  0  0  0
   37.7729  -16.5535   46.8630 C   0  0  0  0  0  0  0  0  0  0  0  0
   38.2341  -15.2603   46.9240 C   0  0  0  0  0  0  0  0  0  0  0  0
   42.8573   -3.9117   44.2136 C   0  0  0  0  0  0  0  0  0  0  0  0
   42.5953   -2.8976   45.1243 C   0  0  0  0  0  0  0  0  0  0  0  0
   43.2726   -1.7011   45.0639 C   0  0  0  0  0  0  0  0  0  0  0  0
   44.2391   -1.5154   44.1091 C   0  0  0  0  0  0  0  0  0  0  0  0
   44.5218   -2.5205   43.1878 C   0  0  0  0  0  0  0  0  0  0  0  0
   43.8141   -3.7174   43.2343 C   0  0  0  0  0  0  0  0  0  0  0  0
   45.5618   -2.2224   42.2349 C   0  0  0  0  0  0  0  0  0  0  0  0
   46.4984   -2.1053   41.4585 C   0  0  0  0  0  0  0  0  0  0  0  0
   47.6459   -2.1234   40.5856 C   0  0  0  0  0  0  0  0  0  0  0  0
   48.9660   -2.2238   41.0171 C   0  0  0  0  0  0  0  0  0  0  0  0
   49.9831   -2.2888   40.0932 C   0  0  0  0  0  0  0  0  0  0  0  0
   49.7130   -2.2395   38.7372 C   0  0  0  0  0  0  0  0  0  0  0  0
   48.4049   -2.1267   38.3141 C   0  0  0  0  0  0  0  0  0  0  0  0
   47.3825   -2.0734   39.2221 C   0  0  0  0  0  0  0  0  0  0  0  0
   50.7946   -2.3273   37.6652 C   0  0  0  0  0  0  0  0  0  0  0  0
   50.6744   -3.5213   36.7469 N   0  3  0  0  0  0  0  0  0  0  0  0
   51.7068   -4.6133   36.9370 C   0  0  2  0  0  0  0  0  0  0  0  0
   53.1432   -4.0584   36.7541 C   0  0  0  0  0  0  0  0  0  0  0  0
   53.5418   -4.0486   35.2663 C   0  0  0  0  0  0  0  0  0  0  0  0
   53.5087   -5.4938   34.7330 C   0  0  0  0  0  0  0  0  0  0  0  0
   52.2060   -6.2243   35.0266 C   0  0  0  0  0  0  0  0  0  0  0  0
   51.3745   -5.8229   36.0562 C   0  0  0  0  0  0  0  0  0  0  0  0
   50.2082   -6.5200   36.2901 C   0  0  0  0  0  0  0  0  0  0  0  0
   49.8707   -7.6020   35.5097 C   0  0  0  0  0  0  0  0  0  0  0  0
   50.7025   -7.9988   34.4888 C   0  0  0  0  0  0  0  0  0  0  0  0
   51.8694   -7.3108   34.2504 C   0  0  0  0  0  0  0  0  0  0  0  0
   45.1112   -0.0122   44.0341 Cl  0  0  0  0  0  0  0  0  0  0  0  0
   39.9586   -4.7681   42.7713 C   0  0  0  0  0  0  0  0  0  0  0  0
   51.6747   -4.9469   37.8792 H   0  0  0  0  0  0  0  0  0  0  0  0
   39.3676   -5.3899   39.8752 H   0  0  0  0  0  0  0  0  0  0  0  0
   37.9003   -5.3106   39.1580 H   0  0  0  0  0  0  0  0  0  0  0  0
   38.7551   -3.9474   39.4068 H   0  0  0  0  0  0  0  0  0  0  0  0
   39.4797   -7.0559   41.6531 H   0  0  0  0  0  0  0  0  0  0  0  0
   37.9609   -7.3046   42.2518 H   0  0  0  0  0  0  0  0  0  0  0  0
   39.6855   -8.4677   43.5202 H   0  0  0  0  0  0  0  0  0  0  0  0
   38.7591   -7.4682   44.4272 H   0  0  0  0  0  0  0  0  0  0  0  0
   42.8541   -8.6284   45.7488 H   0  0  0  0  0  0  0  0  0  0  0  0
   41.4913   -9.1880   44.9435 H   0  0  0  0  0  0  0  0  0  0  0  0
   41.1902   -7.9589   47.4808 H   0  0  0  0  0  0  0  0  0  0  0  0
   41.6005   -9.5560   47.3701 H   0  0  0  0  0  0  0  0  0  0  0  0
   39.2953   -8.6396   45.9613 H   0  0  0  0  0  0  0  0  0  0  0  0
   39.1931   -8.9814   47.5843 H   0  0  0  0  0  0  0  0  0  0  0  0
   38.7927  -10.9217   46.9904 H   0  0  0  0  0  0  0  0  0  0  0  0
   41.0438  -11.2263   47.6108 H   0  0  0  0  0  0  0  0  0  0  0  0
   41.3507  -11.3689   46.0253 H   0  0  0  0  0  0  0  0  0  0  0  0
   39.8863  -13.1678   47.7070 H   0  0  0  0  0  0  0  0  0  0  0  0
   40.9730  -13.5201   46.5007 H   0  0  0  0  0  0  0  0  0  0  0  0
   38.2386  -12.6353   44.1082 H   0  0  0  0  0  0  0  0  0  0  0  0
   39.8885  -12.5094   44.1524 H   0  0  0  0  0  0  0  0  0  0  0  0
   39.4688  -10.3484   44.3822 H   0  0  0  0  0  0  0  0  0  0  0  0
   37.9700  -10.6176   44.9976 H   0  0  0  0  0  0  0  0  0  0  0  0
   38.7913  -14.7844   43.7151 H   0  0  0  0  0  0  0  0  0  0  0  0
   38.0019  -17.0158   43.6162 H   0  0  0  0  0  0  0  0  0  0  0  0
   37.3534  -18.1405   45.6068 H   0  0  0  0  0  0  0  0  0  0  0  0
   37.4988  -17.0260   47.7006 H   0  0  0  0  0  0  0  0  0  0  0  0
   38.2946  -14.7973   47.8083 H   0  0  0  0  0  0  0  0  0  0  0  0
   41.9049   -3.0382   45.8338 H   0  0  0  0  0  0  0  0  0  0  0  0
   43.0611   -0.9707   45.7135 H   0  0  0  0  0  0  0  0  0  0  0  0
   43.9967   -4.4347   42.5619 H   0  0  0  0  0  0  0  0  0  0  0  0
   49.1737   -2.2486   41.9949 H   0  0  0  0  0  0  0  0  0  0  0  0
   50.9293   -2.3727   40.4056 H   0  0  0  0  0  0  0  0  0  0  0  0
   48.2020   -2.0835   37.3358 H   0  0  0  0  0  0  0  0  0  0  0  0
   46.4382   -1.9980   38.9018 H   0  0  0  0  0  0  0  0  0  0  0  0
   51.6841   -2.3689   38.1203 H   0  0  0  0  0  0  0  0  0  0  0  0
   50.6890   -1.5166   37.0893 H   0  0  0  0  0  0  0  0  0  0  0  0
   49.8479   -3.8862   36.8664 H   0  0  0  0  0  0  0  0  0  0  0  0
   50.6383   -3.2466   35.8798 H   0  0  0  0  0  0  0  0  0  0  0  0
   53.7848   -4.6315   37.2641 H   0  0  0  0  0  0  0  0  0  0  0  0
   53.1696   -3.1196   37.0974 H   0  0  0  0  0  0  0  0  0  0  0  0
   54.4627   -3.6718   35.1661 H   0  0  0  0  0  0  0  0  0  0  0  0
   52.9020   -3.4818   34.7473 H   0  0  0  0  0  0  0  0  0  0  0  0
   54.2606   -6.0035   35.1512 H   0  0  0  0  0  0  0  0  0  0  0  0
   53.5945   -5.4402   33.7381 H   0  0  0  0  0  0  0  0  0  0  0  0
   49.6022   -6.2368   37.0335 H   0  0  0  0  0  0  0  0  0  0  0  0
   49.0211   -8.0995   35.6847 H   0  0  0  0  0  0  0  0  0  0  0  0
   50.4595   -8.7855   33.9213 H   0  0  0  0  0  0  0  0  0  0  0  0
   52.4760   -7.6009   33.5101 H   0  0  0  0  0  0  0  0  0  0  0  0
   39.7894   -3.8590   43.1519 H   0  0  0  0  0  0  0  0  0  0  0  0
   40.4166   -4.7465   41.8826 H   0  0  0  0  0  0  0  0  0  0  0  0
  1  2  1  0  0  0  0
  1 57  1  0  0  0  0
  1 58  1  0  0  0  0
  1 59  1  0  0  0  0
  2  3  2  0  0  0  0
  2  4  2  0  0  0  0
  2  5  1  0  0  0  0
  5  6  1  0  0  0  0
  5 55  1  0  0  0  0
  6  7  1  0  0  0  0
  6 60  1  0  0  0  0
  6 61  1  0  0  0  0
  7  8  1  0  0  0  0
  7 62  1  0  0  0  0
  7 63  1  0  0  0  0
  8  9  2  0  0  0  0
  8 12  1  0  0  0  0
  9 10  1  0  0  0  0
  9 55  1  0  0  0  0
 10 11  2  0  0  0  0
 10 28  1  0  0  0  0
 11 12  1  0  0  0  0
 12 13  1  0  0  0  0
 13 14  1  0  0  0  0
 13 64  1  0  0  0  0
 13 65  1  0  0  0  0
 14 15  1  0  0  0  0
 14 66  1  0  0  0  0
 14 67  1  0  0  0  0
 15 16  1  0  0  0  0
 15 68  1  0  0  0  0
 15 69  1  0  0  0  0
 16 17  1  0  0  0  0
 16 21  1  0  0  0  0
 16 70  1  0  0  0  0
 17 18  1  0  0  0  0
 17 71  1  0  0  0  0
 17 72  1  0  0  0  0
 18 19  1  0  0  0  0
 18 73  1  0  0  0  0
 18 74  1  0  0  0  0
 19 20  1  0  0  0  0
 19 22  1  0  0  0  0
 20 21  1  0  0  0  0
 20 75  1  0  0  0  0
 20 76  1  0  0  0  0
 21 77  1  0  0  0  0
 21 78  1  0  0  0  0
 22 23  2  0  0  0  0
 22 27  1  0  0  0  0
 23 24  1  0  0  0  0
 23 79  1  0  0  0  0
 24 25  2  0  0  0  0
 24 80  1  0  0  0  0
 25 26  1  0  0  0  0
 25 81  1  0  0  0  0
 26 27  2  0  0  0  0
 26 82  1  0  0  0  0
 27 83  1  0  0  0  0
 28 29  2  0  0  0  0
 28 33  1  0  0  0  0
 29 30  1  0  0  0  0
 29 84  1  0  0  0  0
 30 31  2  0  0  0  0
 30 85  1  0  0  0  0
 31 32  1  0  0  0  0
 31 54  1  0  0  0  0
 32 33  2  0  0  0  0
 32 34  1  0  0  0  0
 33 86  1  0  0  0  0
 34 35  3  0  0  0  0
 35 36  1  0  0  0  0
 36 37  2  0  0  0  0
 36 41  1  0  0  0  0
 37 38  1  0  0  0  0
 37 87  1  0  0  0  0
 38 39  2  0  0  0  0
 38 88  1  0  0  0  0
 39 40  1  0  0  0  0
 39 42  1  0  0  0  0
 40 41  2  0  0  0  0
 40 89  1  0  0  0  0
 41 90  1  0  0  0  0
 42 43  1  0  0  0  0
 42 91  1  0  0  0  0
 42 92  1  0  0  0  0
 43 44  1  0  0  0  0
 43 93  1  0  0  0  0
 43 94  1  0  0  0  0
 44 45  1  0  0  0  0
 44 49  1  0  0  0  0
 44 56  1  1  0  0  0
 45 46  1  0  0  0  0
 45 95  1  0  0  0  0
 45 96  1  0  0  0  0
 46 47  1  0  0  0  0
 46 97  1  0  0  0  0
 46 98  1  0  0  0  0
 47 48  1  0  0  0  0
 47 99  1  0  0  0  0
 47100  1  0  0  0  0
 48 49  2  0  0  0  0
 48 53  1  0  0  0  0
 49 50  1  0  0  0  0
 50 51  2  0  0  0  0
 50101  1  0  0  0  0
 51 52  1  0  0  0  0
 51102  1  0  0  0  0
 52 53  2  0  0  0  0
 52103  1  0  0  0  0
 53104  1  0  0  0  0
 55105  1  0  0  0  0
 55106  1  0  0  0  0
M  CHG  2  16   1  43   1
M  END
