CatS_287:1_D
 OpenBabel12041818463D

 99105  0  0  0  0  0  0  0  0999 V2000
   38.1476   -4.6543   39.4933 C   0  0  0  0  0  0  0  0  0  0  0  0
   37.4218   -4.8916   41.1402 S   0  0  0  0  0  0  0  0  0  0  0  0
   36.2265   -5.6554   40.9885 O   0  0  0  0  0  0  0  0  0  0  0  0
   37.3007   -3.6128   41.7600 O   0  0  0  0  0  0  0  0  0  0  0  0
   38.4744   -5.7370   42.0540 N   0  0  0  0  0  0  0  0  0  0  0  0
   38.8010   -7.1320   41.6921 C   0  0  0  0  0  0  0  0  0  0  0  0
   39.2420   -7.9240   42.9456 C   0  0  0  0  0  0  0  0  0  0  0  0
   40.3167   -7.1651   43.7020 C   0  0  0  0  0  0  0  0  0  0  0  0
   40.5348   -5.8630   43.5020 C   0  0  0  0  0  0  0  0  0  0  0  0
   41.6252   -5.5725   44.3571 C   0  0  0  0  0  0  0  0  0  0  0  0
   41.9456   -6.6755   44.9985 N   0  0  0  0  0  0  0  0  0  0  0  0
   41.1419   -7.6985   44.6356 N   0  0  0  0  0  0  0  0  0  0  0  0
   41.1122   -9.0075   45.2982 C   0  0  0  0  0  0  0  0  0  0  0  0
   39.9432   -9.2059   46.2819 C   0  0  0  0  0  0  0  0  0  0  0  0
   38.8164  -10.0072   45.5954 C   0  0  0  0  0  0  0  0  0  0  0  0
   39.2678  -11.3645   45.1155 N   0  3  0  0  0  0  0  0  0  0  0  0
   39.8532  -12.2014   46.2236 C   0  0  0  0  0  0  0  0  0  0  0  0
   40.3516  -13.5644   45.6996 C   0  0  0  0  0  0  0  0  0  0  0  0
   39.3320  -14.2633   44.8896 N   0  0  0  0  0  0  0  0  0  0  0  0
   38.7242  -13.4330   43.8261 C   0  0  0  0  0  0  0  0  0  0  0  0
   38.1821  -12.0987   44.3712 C   0  0  0  0  0  0  0  0  0  0  0  0
   39.0396  -15.6010   45.0697 C   0  0  0  0  0  0  0  0  0  0  0  0
   37.7813  -16.1077   44.7371 C   0  0  0  0  0  0  0  0  0  0  0  0
   37.5036  -17.4271   44.9233 C   0  0  0  0  0  0  0  0  0  0  0  0
   38.4802  -18.2770   45.4498 C   0  0  0  0  0  0  0  0  0  0  0  0
   39.6960  -17.7811   45.7676 C   0  0  0  0  0  0  0  0  0  0  0  0
   39.9760  -16.4546   45.5745 N   0  3  0  0  0  0  0  0  0  0  0  0
   42.3329   -4.3201   44.5729 C   0  0  0  0  0  0  0  0  0  0  0  0
   42.0862   -3.6092   45.7384 C   0  0  0  0  0  0  0  0  0  0  0  0
   42.7205   -2.4122   45.9864 C   0  0  0  0  0  0  0  0  0  0  0  0
   43.6098   -1.8972   45.0749 C   0  0  0  0  0  0  0  0  0  0  0  0
   43.8729   -2.5961   43.9001 C   0  0  0  0  0  0  0  0  0  0  0  0
   43.2413   -3.8123   43.6643 C   0  0  0  0  0  0  0  0  0  0  0  0
   44.7746   -2.0565   42.9146 C   0  0  0  0  0  0  0  0  0  0  0  0
   45.5224   -1.6007   42.0649 C   0  0  0  0  0  0  0  0  0  0  0  0
   46.3913   -1.0713   41.0455 C   0  0  0  0  0  0  0  0  0  0  0  0
   46.7553    0.2702   41.0768 C   0  0  0  0  0  0  0  0  0  0  0  0
   47.5921    0.7725   40.1144 C   0  0  0  0  0  0  0  0  0  0  0  0
   48.0760   -0.0524   39.1204 C   0  0  0  0  0  0  0  0  0  0  0  0
   47.7295   -1.3888   39.0797 C   0  0  0  0  0  0  0  0  0  0  0  0
   46.8864   -1.8954   40.0401 C   0  0  0  0  0  0  0  0  0  0  0  0
   48.3368   -2.2651   37.9900 C   0  0  0  0  0  0  0  0  0  0  0  0
   49.8464   -2.2808   37.9416 N   0  3  0  0  0  0  0  0  0  0  0  0
   50.5019   -3.5943   38.2979 C   0  0  0  0  0  0  0  0  0  0  0  0
   50.7394   -4.5446   37.1308 C   0  0  0  0  0  0  0  0  0  0  0  0
   51.6220   -4.1774   36.1386 C   0  0  0  0  0  0  0  0  0  0  0  0
   51.8428   -4.9986   35.0574 C   0  0  0  0  0  0  0  0  0  0  0  0
   51.1794   -6.2007   34.9633 C   0  0  0  0  0  0  0  0  0  0  0  0
   50.2978   -6.5761   35.9522 C   0  0  0  0  0  0  0  0  0  0  0  0
   50.0745   -5.7483   37.0289 C   0  0  0  0  0  0  0  0  0  0  0  0
   51.4524   -7.2406   33.5970 Cl  0  0  0  0  0  0  0  0  0  0  0  0
   44.4002   -0.3788   45.3870 Cl  0  0  0  0  0  0  0  0  0  0  0  0
   39.7019   -5.0476   42.5184 C   0  0  0  0  0  0  0  0  0  0  0  0
   39.0485   -5.0876   39.4691 H   0  0  0  0  0  0  0  0  0  0  0  0
   37.5564   -5.0678   38.8008 H   0  0  0  0  0  0  0  0  0  0  0  0
   38.2377   -3.6768   39.3028 H   0  0  0  0  0  0  0  0  0  0  0  0
   39.5412   -7.1350   41.0197 H   0  0  0  0  0  0  0  0  0  0  0  0
   37.9875   -7.5659   41.3048 H   0  0  0  0  0  0  0  0  0  0  0  0
   39.5999   -8.8147   42.6651 H   0  0  0  0  0  0  0  0  0  0  0  0
   38.4514   -8.0470   43.5454 H   0  0  0  0  0  0  0  0  0  0  0  0
   41.9686   -9.1228   45.8014 H   0  0  0  0  0  0  0  0  0  0  0  0
   40.9885   -9.6867   44.5748 H   0  0  0  0  0  0  0  0  0  0  0  0
   39.5932   -8.3142   46.5689 H   0  0  0  0  0  0  0  0  0  0  0  0
   40.2662   -9.7102   47.0827 H   0  0  0  0  0  0  0  0  0  0  0  0
   38.4830   -9.4837   44.8113 H   0  0  0  0  0  0  0  0  0  0  0  0
   38.0975  -10.1550   46.2746 H   0  0  0  0  0  0  0  0  0  0  0  0
   39.9457  -11.2221   44.5221 H   0  0  0  0  0  0  0  0  0  0  0  0
   39.1535  -12.3547   46.9213 H   0  0  0  0  0  0  0  0  0  0  0  0
   40.6344  -11.7099   46.6086 H   0  0  0  0  0  0  0  0  0  0  0  0
   40.5956  -14.1403   46.4798 H   0  0  0  0  0  0  0  0  0  0  0  0
   41.1424  -13.3943   45.1117 H   0  0  0  0  0  0  0  0  0  0  0  0
   37.9726  -13.9424   43.4074 H   0  0  0  0  0  0  0  0  0  0  0  0
   39.4356  -13.2236   43.1551 H   0  0  0  0  0  0  0  0  0  0  0  0
   37.8601  -11.5341   43.6111 H   0  0  0  0  0  0  0  0  0  0  0  0
   37.4249  -12.2854   44.9971 H   0  0  0  0  0  0  0  0  0  0  0  0
   37.0824  -15.4993   44.3610 H   0  0  0  0  0  0  0  0  0  0  0  0
   36.6022  -17.7878   44.6838 H   0  0  0  0  0  0  0  0  0  0  0  0
   38.2803  -19.2467   45.5904 H   0  0  0  0  0  0  0  0  0  0  0  0
   40.3960  -18.3866   46.1463 H   0  0  0  0  0  0  0  0  0  0  0  0
   40.8928  -16.1226   45.7900 H   0  0  0  0  0  0  0  0  0  0  0  0
   41.4381   -3.9712   46.4084 H   0  0  0  0  0  0  0  0  0  0  0  0
   42.5329   -1.9158   46.8339 H   0  0  0  0  0  0  0  0  0  0  0  0
   43.4466   -4.3238   42.8299 H   0  0  0  0  0  0  0  0  0  0  0  0
   46.4075    0.8672   41.7997 H   0  0  0  0  0  0  0  0  0  0  0  0
   47.8520    1.7379   40.1329 H   0  0  0  0  0  0  0  0  0  0  0  0
   48.6852    0.3216   38.4211 H   0  0  0  0  0  0  0  0  0  0  0  0
   46.6276   -2.8611   40.0158 H   0  0  0  0  0  0  0  0  0  0  0  0
   48.0002   -1.9395   37.1065 H   0  0  0  0  0  0  0  0  0  0  0  0
   48.0585   -3.2019   38.2016 H   0  0  0  0  0  0  0  0  0  0  0  0
   50.1054   -2.0760   37.0945 H   0  0  0  0  0  0  0  0  0  0  0  0
   50.1940   -1.6042   38.4443 H   0  0  0  0  0  0  0  0  0  0  0  0
   49.9199   -4.0600   38.9646 H   0  0  0  0  0  0  0  0  0  0  0  0
   51.4082   -3.3625   38.6513 H   0  0  0  0  0  0  0  0  0  0  0  0
   52.1068   -3.3053   36.2052 H   0  0  0  0  0  0  0  0  0  0  0  0
   52.4840   -4.7227   34.3413 H   0  0  0  0  0  0  0  0  0  0  0  0
   49.8189   -7.4516   35.8880 H   0  0  0  0  0  0  0  0  0  0  0  0
   49.4271   -6.0211   37.7406 H   0  0  0  0  0  0  0  0  0  0  0  0
   39.4354   -4.1918   42.9617 H   0  0  0  0  0  0  0  0  0  0  0  0
   40.2731   -4.8978   41.7113 H   0  0  0  0  0  0  0  0  0  0  0  0
  1  2  1  0  0  0  0
  1 54  1  0  0  0  0
  1 55  1  0  0  0  0
  1 56  1  0  0  0  0
  2  3  2  0  0  0  0
  2  4  2  0  0  0  0
  2  5  1  0  0  0  0
  5  6  1  0  0  0  0
  5 53  1  0  0  0  0
  6  7  1  0  0  0  0
  6 57  1  0  0  0  0
  6 58  1  0  0  0  0
  7  8  1  0  0  0  0
  7 59  1  0  0  0  0
  7 60  1  0  0  0  0
  8  9  2  0  0  0  0
  8 12  1  0  0  0  0
  9 10  1  0  0  0  0
  9 53  1  0  0  0  0
 10 11  2  0  0  0  0
 10 28  1  0  0  0  0
 11 12  1  0  0  0  0
 12 13  1  0  0  0  0
 13 14  1  0  0  0  0
 13 61  1  0  0  0  0
 13 62  1  0  0  0  0
 14 15  1  0  0  0  0
 14 63  1  0  0  0  0
 14 64  1  0  0  0  0
 15 16  1  0  0  0  0
 15 65  1  0  0  0  0
 15 66  1  0  0  0  0
 16 17  1  0  0  0  0
 16 21  1  0  0  0  0
 16 67  1  0  0  0  0
 17 18  1  0  0  0  0
 17 68  1  0  0  0  0
 17 69  1  0  0  0  0
 18 19  1  0  0  0  0
 18 70  1  0  0  0  0
 18 71  1  0  0  0  0
 19 20  1  0  0  0  0
 19 22  1  0  0  0  0
 20 21  1  0  0  0  0
 20 72  1  0  0  0  0
 20 73  1  0  0  0  0
 21 74  1  0  0  0  0
 21 75  1  0  0  0  0
 22 23  2  0  0  0  0
 22 27  1  0  0  0  0
 23 24  1  0  0  0  0
 23 76  1  0  0  0  0
 24 25  2  0  0  0  0
 24 77  1  0  0  0  0
 25 26  1  0  0  0  0
 25 78  1  0  0  0  0
 26 27  2  0  0  0  0
 26 79  1  0  0  0  0
 27 80  1  0  0  0  0
 28 29  2  0  0  0  0
 28 33  1  0  0  0  0
 29 30  1  0  0  0  0
 29 81  1  0  0  0  0
 30 31  2  0  0  0  0
 30 82  1  0  0  0  0
 31 32  1  0  0  0  0
 31 52  1  0  0  0  0
 32 33  2  0  0  0  0
 32 34  1  0  0  0  0
 33 83  1  0  0  0  0
 34 35  3  0  0  0  0
 35 36  1  0  0  0  0
 36 37  2  0  0  0  0
 36 41  1  0  0  0  0
 37 38  1  0  0  0  0
 37 84  1  0  0  0  0
 38 39  2  0  0  0  0
 38 85  1  0  0  0  0
 39 40  1  0  0  0  0
 39 86  1  0  0  0  0
 40 41  2  0  0  0  0
 40 42  1  0  0  0  0
 41 87  1  0  0  0  0
 42 43  1  0  0  0  0
 42 88  1  0  0  0  0
 42 89  1  0  0  0  0
 43 44  1  0  0  0  0
 43 90  1  0  0  0  0
 43 91  1  0  0  0  0
 44 45  1  0  0  0  0
 44 92  1  0  0  0  0
 44 93  1  0  0  0  0
 45 46  2  0  0  0  0
 45 50  1  0  0  0  0
 46 47  1  0  0  0  0
 46 94  1  0  0  0  0
 47 48  2  0  0  0  0
 47 95  1  0  0  0  0
 48 49  1  0  0  0  0
 48 51  1  0  0  0  0
 49 50  2  0  0  0  0
 49 96  1  0  0  0  0
 50 97  1  0  0  0  0
 53 98  1  0  0  0  0
 53 99  1  0  0  0  0
M  CHG  3  16   1  27   1  43   1
M  END
