CatS_129:1_D
 OpenBabel12041818463D

 96100  0  0  1  0  0  0  0  0999 V2000
   43.5476  -11.1533   47.3546 C   0  0  0  0  0  0  0  0  0  0  0  0
   42.8056  -10.1718   48.2785 C   0  0  0  0  0  0  0  0  0  0  0  0
   41.8340  -10.9546   49.1787 C   0  0  0  0  0  0  0  0  0  0  0  0
   43.8564   -9.5160   49.1904 C   0  0  0  0  0  0  0  0  0  0  0  0
   42.1419   -9.0836   47.5343 N   0  0  0  0  0  0  0  0  0  0  0  0
   41.1914   -9.3390   46.6029 C   0  0  0  0  0  0  0  0  0  0  0  0
   40.7768  -10.4867   46.4026 O   0  0  0  0  0  0  0  0  0  0  0  0
   40.6931   -8.2842   45.9079 N   0  0  0  0  0  0  0  0  0  0  0  0
   39.4516   -8.4591   45.1234 C   0  0  0  0  0  0  0  0  0  0  0  0
   39.5012   -7.8184   43.7204 C   0  0  0  0  0  0  0  0  0  0  0  0
   40.1921   -6.4672   43.7420 C   0  0  0  0  0  0  0  0  0  0  0  0
   41.0033   -6.0830   44.7320 C   0  0  0  0  0  0  0  0  0  0  0  0
   41.4301   -4.7948   44.3285 C   0  0  0  0  0  0  0  0  0  0  0  0
   40.8659   -4.5139   43.1730 N   0  0  0  0  0  0  0  0  0  0  0  0
   40.0751   -5.5309   42.7680 N   0  0  0  0  0  0  0  0  0  0  0  0
   39.2413   -5.5231   41.5581 C   0  0  0  0  0  0  0  0  0  0  0  0
   37.8427   -4.9140   41.7695 C   0  0  2  0  0  0  0  0  0  0  0  0
   37.1393   -4.5902   40.4339 C   0  0  0  0  0  0  0  0  0  0  0  0
   35.8662   -5.3714   40.2124 N   0  3  0  0  0  0  0  0  0  0  0  0
   35.3304   -5.2179   38.8097 C   0  0  0  0  0  0  0  0  0  0  0  0
   36.2010   -5.9843   37.7934 C   0  0  0  0  0  0  0  0  0  0  0  0
   36.2756   -7.4712   38.1882 C   0  0  0  0  0  0  0  0  0  0  0  0
   36.8641   -7.6057   39.6055 C   0  0  0  0  0  0  0  0  0  0  0  0
   36.0010   -6.8207   40.6151 C   0  0  0  0  0  0  0  0  0  0  0  0
   37.9258   -3.7354   42.5843 O   0  0  0  0  0  0  0  0  0  0  0  0
   42.3361   -3.8741   44.9956 C   0  0  0  0  0  0  0  0  0  0  0  0
   43.5844   -4.3171   45.3906 C   0  0  0  0  0  0  0  0  0  0  0  0
   44.4635   -3.4721   46.0249 C   0  0  0  0  0  0  0  0  0  0  0  0
   44.1380   -2.1557   46.2816 C   0  0  0  0  0  0  0  0  0  0  0  0
   42.8887   -1.7091   45.8741 C   0  0  0  0  0  0  0  0  0  0  0  0
   42.0021   -2.5551   45.2467 C   0  0  0  0  0  0  0  0  0  0  0  0
   42.3614   -0.0084   46.1241 S   0  0  0  0  0  0  0  0  0  0  0  0
   40.6822   -0.0826   46.8021 C   0  0  0  0  0  0  0  0  0  0  0  0
   40.7110    0.1603   48.3270 C   0  0  0  0  0  0  0  0  0  0  0  0
   41.0562   -1.0581   49.1470 N   0  3  1  0  0  0  0  0  0  0  0  0
   42.3114   -0.8972   49.9705 C   0  0  0  0  0  0  0  0  0  0  0  0
   42.6587   -2.2066   50.7070 C   0  0  0  0  0  0  0  0  0  0  0  0
   41.4754   -2.6294   51.5980 C   0  0  1  0  0  0  0  0  0  0  0  0
   40.2102   -2.8157   50.7389 C   0  0  0  0  0  0  0  0  0  0  0  0
   39.8851   -1.5101   49.9846 C   0  0  0  0  0  0  0  0  0  0  0  0
   41.7815   -3.8288   52.2299 F   0  0  0  0  0  0  0  0  0  0  0  0
   45.1859   -1.2995   46.9913 C   0  0  0  0  0  0  0  0  0  0  0  0
   46.3054   -2.0554   47.3210 F   0  0  0  0  0  0  0  0  0  0  0  0
   44.7279   -0.7219   48.1722 F   0  0  0  0  0  0  0  0  0  0  0  0
   45.6132   -0.2566   46.1765 F   0  0  0  0  0  0  0  0  0  0  0  0
   41.3229   -6.9395   45.9518 C   0  0  0  0  0  0  0  0  0  0  0  0
   37.2901   -5.6019   42.2400 H   0  0  0  0  0  0  0  0  0  0  0  0
   43.4339  -10.8570   46.4063 H   0  0  0  0  0  0  0  0  0  0  0  0
   44.5198  -11.1682   47.5885 H   0  0  0  0  0  0  0  0  0  0  0  0
   43.1713  -12.0727   47.4685 H   0  0  0  0  0  0  0  0  0  0  0  0
   40.9175  -10.5659   49.0840 H   0  0  0  0  0  0  0  0  0  0  0  0
   41.8216  -11.9167   48.9061 H   0  0  0  0  0  0  0  0  0  0  0  0
   42.1314  -10.8901   50.1313 H   0  0  0  0  0  0  0  0  0  0  0  0
   43.8314   -8.5254   49.0560 H   0  0  0  0  0  0  0  0  0  0  0  0
   43.6560   -9.7314   50.1461 H   0  0  0  0  0  0  0  0  0  0  0  0
   44.7653   -9.8649   48.9619 H   0  0  0  0  0  0  0  0  0  0  0  0
   42.3631   -8.2534   47.7141 H   0  0  0  0  0  0  0  0  0  0  0  0
   38.6954   -8.0485   45.6329 H   0  0  0  0  0  0  0  0  0  0  0  0
   39.3313   -9.4425   44.9872 H   0  0  0  0  0  0  0  0  0  0  0  0
   38.5671   -7.7017   43.3830 H   0  0  0  0  0  0  0  0  0  0  0  0
   40.0242   -8.4240   43.1206 H   0  0  0  0  0  0  0  0  0  0  0  0
   39.1327   -6.4658   41.2426 H   0  0  0  0  0  0  0  0  0  0  0  0
   39.7089   -4.9482   40.8867 H   0  0  0  0  0  0  0  0  0  0  0  0
   37.7711   -4.7929   39.6857 H   0  0  0  0  0  0  0  0  0  0  0  0
   36.8853   -3.6235   40.4650 H   0  0  0  0  0  0  0  0  0  0  0  0
   35.2396   -5.0122   40.7683 H   0  0  0  0  0  0  0  0  0  0  0  0
   35.3194   -4.2477   38.5675 H   0  0  0  0  0  0  0  0  0  0  0  0
   34.4052   -5.5962   38.7810 H   0  0  0  0  0  0  0  0  0  0  0  0
   37.1218   -5.5944   37.7821 H   0  0  0  0  0  0  0  0  0  0  0  0
   35.7937   -5.9052   36.8835 H   0  0  0  0  0  0  0  0  0  0  0  0
   36.8559   -7.9603   37.5372 H   0  0  0  0  0  0  0  0  0  0  0  0
   35.3554   -7.8625   38.1755 H   0  0  0  0  0  0  0  0  0  0  0  0
   37.7968   -7.2454   39.6135 H   0  0  0  0  0  0  0  0  0  0  0  0
   36.8727   -8.5712   39.8656 H   0  0  0  0  0  0  0  0  0  0  0  0
   35.0914   -7.2337   40.6602 H   0  0  0  0  0  0  0  0  0  0  0  0
   36.4492   -6.8593   41.5083 H   0  0  0  0  0  0  0  0  0  0  0  0
   38.7058   -3.1593   42.3163 H   0  0  0  0  0  0  0  0  0  0  0  0
   43.8513   -5.2643   45.2127 H   0  0  0  0  0  0  0  0  0  0  0  0
   45.3583   -3.8186   46.3064 H   0  0  0  0  0  0  0  0  0  0  0  0
   41.1049   -2.2118   44.9689 H   0  0  0  0  0  0  0  0  0  0  0  0
   40.2888   -0.9830   46.6160 H   0  0  0  0  0  0  0  0  0  0  0  0
   40.1248    0.6266   46.3706 H   0  0  0  0  0  0  0  0  0  0  0  0
   39.8087    0.4853   48.6103 H   0  0  0  0  0  0  0  0  0  0  0  0
   41.4348    0.8296   48.4951 H   0  0  0  0  0  0  0  0  0  0  0  0
   41.2184   -1.7311   48.5538 H   0  0  0  0  0  0  0  0  0  0  0  0
   42.1736   -0.1682   50.6410 H   0  0  0  0  0  0  0  0  0  0  0  0
   43.0675   -0.6669   49.3579 H   0  0  0  0  0  0  0  0  0  0  0  0
   43.4710   -2.0662   51.2731 H   0  0  0  0  0  0  0  0  0  0  0  0
   42.8409   -2.9258   50.0365 H   0  0  0  0  0  0  0  0  0  0  0  0
   41.3079   -1.9183   52.2809 H   0  0  0  0  0  0  0  0  0  0  0  0
   39.4408   -3.0602   51.3290 H   0  0  0  0  0  0  0  0  0  0  0  0
   40.3706   -3.5452   50.0740 H   0  0  0  0  0  0  0  0  0  0  0  0
   39.0960   -1.6620   49.3896 H   0  0  0  0  0  0  0  0  0  0  0  0
   39.6840   -0.7986   50.6578 H   0  0  0  0  0  0  0  0  0  0  0  0
   42.3146   -7.0539   46.0113 H   0  0  0  0  0  0  0  0  0  0  0  0
   40.9518   -6.4652   46.7502 H   0  0  0  0  0  0  0  0  0  0  0  0
  1  2  1  0  0  0  0
  1 48  1  0  0  0  0
  1 49  1  0  0  0  0
  1 50  1  0  0  0  0
  2  3  1  0  0  0  0
  2  4  1  0  0  0  0
  2  5  1  0  0  0  0
  3 51  1  0  0  0  0
  3 52  1  0  0  0  0
  3 53  1  0  0  0  0
  4 54  1  0  0  0  0
  4 55  1  0  0  0  0
  4 56  1  0  0  0  0
  5  6  1  0  0  0  0
  5 57  1  0  0  0  0
  6  7  2  0  0  0  0
  6  8  1  0  0  0  0
  8  9  1  0  0  0  0
  8 46  1  0  0  0  0
  9 10  1  0  0  0  0
  9 58  1  0  0  0  0
  9 59  1  0  0  0  0
 10 11  1  0  0  0  0
 10 60  1  0  0  0  0
 10 61  1  0  0  0  0
 11 12  2  0  0  0  0
 11 15  1  0  0  0  0
 12 13  1  0  0  0  0
 12 46  1  0  0  0  0
 13 14  2  0  0  0  0
 13 26  1  0  0  0  0
 14 15  1  0  0  0  0
 15 16  1  0  0  0  0
 16 17  1  0  0  0  0
 16 62  1  0  0  0  0
 16 63  1  0  0  0  0
 17 18  1  0  0  0  0
 17 25  1  0  0  0  0
 17 47  1  1  0  0  0
 18 19  1  0  0  0  0
 18 64  1  0  0  0  0
 18 65  1  0  0  0  0
 19 20  1  0  0  0  0
 19 24  1  0  0  0  0
 19 66  1  0  0  0  0
 20 21  1  0  0  0  0
 20 67  1  0  0  0  0
 20 68  1  0  0  0  0
 21 22  1  0  0  0  0
 21 69  1  0  0  0  0
 21 70  1  0  0  0  0
 22 23  1  0  0  0  0
 22 71  1  0  0  0  0
 22 72  1  0  0  0  0
 23 24  1  0  0  0  0
 23 73  1  0  0  0  0
 23 74  1  0  0  0  0
 24 75  1  0  0  0  0
 24 76  1  0  0  0  0
 25 77  1  0  0  0  0
 26 27  2  0  0  0  0
 26 31  1  0  0  0  0
 27 28  1  0  0  0  0
 27 78  1  0  0  0  0
 28 29  2  0  0  0  0
 28 79  1  0  0  0  0
 29 30  1  0  0  0  0
 29 42  1  0  0  0  0
 30 31  2  0  0  0  0
 30 32  1  0  0  0  0
 31 80  1  0  0  0  0
 32 33  1  0  0  0  0
 33 34  1  0  0  0  0
 33 81  1  0  0  0  0
 33 82  1  0  0  0  0
 34 35  1  0  0  0  0
 34 83  1  0  0  0  0
 34 84  1  0  0  0  0
 35 36  1  0  0  0  0
 35 40  1  0  0  0  0
 35 85  1  6  0  0  0
 36 37  1  0  0  0  0
 36 86  1  0  0  0  0
 36 87  1  0  0  0  0
 37 38  1  0  0  0  0
 37 88  1  0  0  0  0
 37 89  1  0  0  0  0
 38 39  1  0  0  0  0
 38 41  1  0  0  0  0
 38 90  1  1  0  0  0
 39 40  1  0  0  0  0
 39 91  1  0  0  0  0
 39 92  1  0  0  0  0
 40 93  1  0  0  0  0
 40 94  1  0  0  0  0
 42 43  1  0  0  0  0
 42 44  1  0  0  0  0
 42 45  1  0  0  0  0
 46 95  1  0  0  0  0
 46 96  1  0  0  0  0
M  CHG  2  19   1  35   1
M  END
