CatS_448:1_D
 OpenBabel12041818463D

 84 89  0  0  0  0  0  0  0  0999 V2000
   47.1668   -1.8927   38.9481 C   0  0  0  0  0  0  0  0  0  0  0  0
   48.1453   -1.9736   37.9901 C   0  0  0  0  0  0  0  0  0  0  0  0
   49.4199   -2.3894   38.3238 C   0  0  0  0  0  0  0  0  0  0  0  0
   49.7302   -2.7220   39.6286 C   0  0  0  0  0  0  0  0  0  0  0  0
   48.7556   -2.6344   40.5900 C   0  0  0  0  0  0  0  0  0  0  0  0
   47.4653   -2.2316   40.2633 C   0  0  0  0  0  0  0  0  0  0  0  0
   46.4792   -2.2032   41.3130 C   0  0  0  0  0  0  0  0  0  0  0  0
   45.6429   -2.2607   42.1995 C   0  0  0  0  0  0  0  0  0  0  0  0
   44.6602   -2.4335   43.2385 C   0  0  0  0  0  0  0  0  0  0  0  0
   43.7521   -3.4880   43.2489 C   0  0  0  0  0  0  0  0  0  0  0  0
   42.8274   -3.6059   44.2692 C   0  0  0  0  0  0  0  0  0  0  0  0
   42.8269   -2.6536   45.2819 C   0  0  0  0  0  0  0  0  0  0  0  0
   43.7214   -1.6075   45.2772 C   0  0  0  0  0  0  0  0  0  0  0  0
   44.6342   -1.4893   44.2613 C   0  0  0  0  0  0  0  0  0  0  0  0
   45.7539   -0.1576   44.2605 Cl  0  0  0  0  0  0  0  0  0  0  0  0
   41.8714   -4.7048   44.2677 C   0  0  0  0  0  0  0  0  0  0  0  0
   41.7010   -5.7331   45.2259 C   0  0  0  0  0  0  0  0  0  0  0  0
   40.6887   -6.4543   44.7390 C   0  0  0  0  0  0  0  0  0  0  0  0
   40.2182   -5.9687   43.5649 N   0  0  0  0  0  0  0  0  0  0  0  0
   40.9860   -4.8852   43.3086 N   0  0  0  0  0  0  0  0  0  0  0  0
   39.1032   -6.4380   42.7319 C   0  0  0  0  0  0  0  0  0  0  0  0
   39.4933   -7.0639   41.3814 C   0  0  0  0  0  0  0  0  0  0  0  0
   38.2213   -7.2492   40.5259 C   0  0  0  0  0  0  0  0  0  0  0  0
   38.0209   -6.1966   39.4631 N   0  3  0  0  0  0  0  0  0  0  0  0
   37.0606   -6.6813   38.4032 C   0  0  0  0  0  0  0  0  0  0  0  0
   35.6268   -6.8650   38.9341 C   0  0  0  0  0  0  0  0  0  0  0  0
   34.9757   -5.2713   39.4924 S   0  0  0  0  0  0  0  0  0  0  0  0
   36.2572   -4.8587   40.7026 C   0  0  0  0  0  0  0  0  0  0  0  0
   37.6435   -4.8475   40.0283 C   0  0  0  0  0  0  0  0  0  0  0  0
   40.1388   -7.6766   45.4492 C   0  0  0  0  0  0  0  0  0  0  0  0
   41.2201   -8.3273   46.3354 C   0  0  0  0  0  0  0  0  0  0  0  0
   42.0181   -7.3648   47.1266 N   0  0  0  0  0  0  0  0  0  0  0  0
   42.4147   -6.0642   46.5298 C   0  0  0  0  0  0  0  0  0  0  0  0
   42.4190   -7.7248   48.3717 C   0  0  0  0  0  0  0  0  0  0  0  0
   42.0310   -8.7749   48.8934 O   0  0  0  0  0  0  0  0  0  0  0  0
   43.2687   -6.9187   49.0413 N   0  0  0  0  0  0  0  0  0  0  0  0
   51.1398   -3.1713   40.0015 C   0  0  0  0  0  0  0  0  0  0  0  0
   52.1830   -2.0774   40.0497 N   0  3  0  0  0  0  0  0  0  0  0  0
   52.3163   -1.5106   41.4418 C   0  0  0  0  0  0  0  0  0  0  0  0
   53.3914   -0.4060   41.4765 C   0  0  0  0  0  0  0  0  0  0  0  0
   54.6433   -0.8994   40.9634 O   0  0  0  0  0  0  0  0  0  0  0  0
   54.5341   -1.3352   39.5963 C   0  0  0  0  0  0  0  0  0  0  0  0
   53.5204   -2.4903   39.4816 C   0  0  0  0  0  0  0  0  0  0  0  0
   50.6428   -2.4913   37.0914 Cl  0  0  0  0  0  0  0  0  0  0  0  0
   46.2453   -1.5922   38.7024 H   0  0  0  0  0  0  0  0  0  0  0  0
   47.9345   -1.7300   37.0434 H   0  0  0  0  0  0  0  0  0  0  0  0
   48.9758   -2.8633   41.5382 H   0  0  0  0  0  0  0  0  0  0  0  0
   43.7688   -4.1650   42.5132 H   0  0  0  0  0  0  0  0  0  0  0  0
   42.1646   -2.7299   46.0273 H   0  0  0  0  0  0  0  0  0  0  0  0
   43.7055   -0.9332   46.0155 H   0  0  0  0  0  0  0  0  0  0  0  0
   38.5050   -5.6577   42.5497 H   0  0  0  0  0  0  0  0  0  0  0  0
   38.6652   -7.1708   43.2527 H   0  0  0  0  0  0  0  0  0  0  0  0
   39.9293   -7.9506   41.5348 H   0  0  0  0  0  0  0  0  0  0  0  0
   40.1350   -6.4634   40.9042 H   0  0  0  0  0  0  0  0  0  0  0  0
   37.4288   -7.2354   41.1357 H   0  0  0  0  0  0  0  0  0  0  0  0
   38.3276   -8.1195   40.0450 H   0  0  0  0  0  0  0  0  0  0  0  0
   38.8288   -6.0933   39.0535 H   0  0  0  0  0  0  0  0  0  0  0  0
   37.3880   -7.5580   38.0506 H   0  0  0  0  0  0  0  0  0  0  0  0
   37.0274   -5.9845   37.6867 H   0  0  0  0  0  0  0  0  0  0  0  0
   35.6335   -7.5104   39.6980 H   0  0  0  0  0  0  0  0  0  0  0  0
   35.0456   -7.2215   38.2026 H   0  0  0  0  0  0  0  0  0  0  0  0
   36.2501   -5.5368   41.4374 H   0  0  0  0  0  0  0  0  0  0  0  0
   36.0710   -3.9505   41.0774 H   0  0  0  0  0  0  0  0  0  0  0  0
   37.6367   -4.1774   39.2860 H   0  0  0  0  0  0  0  0  0  0  0  0
   38.3185   -4.6106   40.7269 H   0  0  0  0  0  0  0  0  0  0  0  0
   39.8259   -8.3397   44.7692 H   0  0  0  0  0  0  0  0  0  0  0  0
   39.3767   -7.3932   46.0313 H   0  0  0  0  0  0  0  0  0  0  0  0
   41.8416   -8.8434   45.7459 H   0  0  0  0  0  0  0  0  0  0  0  0
   40.7402   -8.9084   46.9927 H   0  0  0  0  0  0  0  0  0  0  0  0
   42.2170   -5.3398   47.1901 H   0  0  0  0  0  0  0  0  0  0  0  0
   43.3890   -6.1331   46.3147 H   0  0  0  0  0  0  0  0  0  0  0  0
   43.5695   -6.1763   48.6833 H   0  0  0  0  0  0  0  0  0  0  0  0
   43.5320   -7.1453   49.8497 H   0  0  0  0  0  0  0  0  0  0  0  0
   51.4348   -3.8518   39.3307 H   0  0  0  0  0  0  0  0  0  0  0  0
   51.0755   -3.5274   40.9337 H   0  0  0  0  0  0  0  0  0  0  0  0
   51.8780   -1.3971   39.5247 H   0  0  0  0  0  0  0  0  0  0  0  0
   52.5727   -2.2424   42.0732 H   0  0  0  0  0  0  0  0  0  0  0  0
   51.4394   -1.1143   41.7140 H   0  0  0  0  0  0  0  0  0  0  0  0
   53.5183   -0.0987   42.4196 H   0  0  0  0  0  0  0  0  0  0  0  0
   53.0883    0.3561   40.9043 H   0  0  0  0  0  0  0  0  0  0  0  0
   55.4289   -1.6453   39.2750 H   0  0  0  0  0  0  0  0  0  0  0  0
   54.2177   -0.5700   39.0358 H   0  0  0  0  0  0  0  0  0  0  0  0
   53.4085   -2.7391   38.5194 H   0  0  0  0  0  0  0  0  0  0  0  0
   53.8641   -3.2738   39.9992 H   0  0  0  0  0  0  0  0  0  0  0  0
  1  2  2  0  0  0  0
  1  6  1  0  0  0  0
  1 45  1  0  0  0  0
  2  3  1  0  0  0  0
  2 46  1  0  0  0  0
  3  4  2  0  0  0  0
  3 44  1  0  0  0  0
  4  5  1  0  0  0  0
  4 37  1  0  0  0  0
  5  6  2  0  0  0  0
  5 47  1  0  0  0  0
  6  7  1  0  0  0  0
  7  8  3  0  0  0  0
  8  9  1  0  0  0  0
  9 10  2  0  0  0  0
  9 14  1  0  0  0  0
 10 11  1  0  0  0  0
 10 48  1  0  0  0  0
 11 12  2  0  0  0  0
 11 16  1  0  0  0  0
 12 13  1  0  0  0  0
 12 49  1  0  0  0  0
 13 14  2  0  0  0  0
 13 50  1  0  0  0  0
 14 15  1  0  0  0  0
 16 17  1  0  0  0  0
 16 20  2  0  0  0  0
 17 18  2  0  0  0  0
 17 33  1  0  0  0  0
 18 19  1  0  0  0  0
 18 30  1  0  0  0  0
 19 20  1  0  0  0  0
 19 21  1  0  0  0  0
 21 22  1  0  0  0  0
 21 51  1  0  0  0  0
 21 52  1  0  0  0  0
 22 23  1  0  0  0  0
 22 53  1  0  0  0  0
 22 54  1  0  0  0  0
 23 24  1  0  0  0  0
 23 55  1  0  0  0  0
 23 56  1  0  0  0  0
 24 25  1  0  0  0  0
 24 29  1  0  0  0  0
 24 57  1  0  0  0  0
 25 26  1  0  0  0  0
 25 58  1  0  0  0  0
 25 59  1  0  0  0  0
 26 27  1  0  0  0  0
 26 60  1  0  0  0  0
 26 61  1  0  0  0  0
 27 28  1  0  0  0  0
 28 29  1  0  0  0  0
 28 62  1  0  0  0  0
 28 63  1  0  0  0  0
 29 64  1  0  0  0  0
 29 65  1  0  0  0  0
 30 31  1  0  0  0  0
 30 66  1  0  0  0  0
 30 67  1  0  0  0  0
 31 32  1  0  0  0  0
 31 68  1  0  0  0  0
 31 69  1  0  0  0  0
 32 33  1  0  0  0  0
 32 34  1  0  0  0  0
 33 70  1  0  0  0  0
 33 71  1  0  0  0  0
 34 35  2  0  0  0  0
 34 36  1  0  0  0  0
 36 72  1  0  0  0  0
 36 73  1  0  0  0  0
 37 38  1  0  0  0  0
 37 74  1  0  0  0  0
 37 75  1  0  0  0  0
 38 39  1  0  0  0  0
 38 43  1  0  0  0  0
 38 76  1  0  0  0  0
 39 40  1  0  0  0  0
 39 77  1  0  0  0  0
 39 78  1  0  0  0  0
 40 41  1  0  0  0  0
 40 79  1  0  0  0  0
 40 80  1  0  0  0  0
 41 42  1  0  0  0  0
 42 43  1  0  0  0  0
 42 81  1  0  0  0  0
 42 82  1  0  0  0  0
 43 83  1  0  0  0  0
 43 84  1  0  0  0  0
M  CHG  2  24   1  38   1
M  END
