CatS_63:1_D
 OpenBabel12041818463D

 81 85  0  0  0  0  0  0  0  0999 V2000
   42.7229   -7.6759   48.8249 C   0  0  0  0  0  0  0  0  0  0  0  0
   43.1731   -8.4168   47.2278 S   0  0  0  0  0  0  0  0  0  0  0  0
   44.5302   -8.1008   46.9266 O   0  0  0  0  0  0  0  0  0  0  0  0
   42.8225   -9.7993   47.2635 O   0  0  0  0  0  0  0  0  0  0  0  0
   42.2792   -7.7067   46.0729 N   0  0  0  0  0  0  0  0  0  0  0  0
   40.8167   -7.9340   46.1014 C   0  0  0  0  0  0  0  0  0  0  0  0
   40.1631   -7.5704   44.7501 C   0  0  0  0  0  0  0  0  0  0  0  0
   40.5997   -6.1866   44.3189 C   0  0  0  0  0  0  0  0  0  0  0  0
   41.6770   -5.5977   44.8414 C   0  0  0  0  0  0  0  0  0  0  0  0
   41.7055   -4.3402   44.1950 C   0  0  0  0  0  0  0  0  0  0  0  0
   40.6916   -4.2769   43.3612 N   0  0  0  0  0  0  0  0  0  0  0  0
   39.9666   -5.4163   43.4005 N   0  0  0  0  0  0  0  0  0  0  0  0
   38.7232   -5.6510   42.6537 C   0  0  0  0  0  0  0  0  0  0  0  0
   38.5319   -4.6199   41.5280 C   0  0  0  0  0  0  0  0  0  0  0  0
   38.1835   -5.2838   40.1793 C   0  0  0  0  0  0  0  0  0  0  0  0
   36.8262   -4.9002   39.6410 N   0  3  0  0  0  0  0  0  0  0  0  0
   35.6989   -5.4263   40.4932 C   0  0  0  0  0  0  0  0  0  0  0  0
   35.5199   -6.9382   40.2531 C   0  0  0  0  0  0  0  0  0  0  0  0
   35.3336   -7.2127   38.8512 O   0  0  0  0  0  0  0  0  0  0  0  0
   36.4543   -6.7820   38.0550 C   0  0  0  0  0  0  0  0  0  0  0  0
   36.6520   -5.2591   38.1876 C   0  0  0  0  0  0  0  0  0  0  0  0
   42.6228   -3.2329   44.3875 C   0  0  0  0  0  0  0  0  0  0  0  0
   42.4514   -2.2466   45.3525 C   0  0  0  0  0  0  0  0  0  0  0  0
   43.3573   -1.2135   45.4697 C   0  0  0  0  0  0  0  0  0  0  0  0
   44.4441   -1.1473   44.6301 C   0  0  0  0  0  0  0  0  0  0  0  0
   44.6295   -2.1344   43.6678 C   0  0  0  0  0  0  0  0  0  0  0  0
   43.7170   -3.1714   43.5556 C   0  0  0  0  0  0  0  0  0  0  0  0
   45.7456   -2.1207   42.7604 C   0  0  0  0  0  0  0  0  0  0  0  0
   46.6517   -2.1367   41.9444 C   0  0  0  0  0  0  0  0  0  0  0  0
   47.6709   -2.1860   40.9275 C   0  0  0  0  0  0  0  0  0  0  0  0
   48.9594   -2.5296   41.3169 C   0  0  0  0  0  0  0  0  0  0  0  0
   49.9644   -2.5992   40.3884 C   0  0  0  0  0  0  0  0  0  0  0  0
   49.7092   -2.3359   39.0587 C   0  0  0  0  0  0  0  0  0  0  0  0
   48.4303   -1.9859   38.6679 C   0  0  0  0  0  0  0  0  0  0  0  0
   47.4131   -1.9102   39.5882 C   0  0  0  0  0  0  0  0  0  0  0  0
   50.8902   -2.4626   38.1061 C   0  0  0  0  0  0  0  0  0  0  0  0
   50.5739   -2.3508   36.6374 N   0  3  0  0  0  0  0  0  0  0  0  0
   51.7419   -2.6440   35.7329 C   0  0  0  0  0  0  0  0  0  0  0  0
   52.9244   -1.6685   35.9162 C   0  0  0  0  0  0  0  0  0  0  0  0
   53.5547   -1.3920   34.7066 F   0  0  0  0  0  0  0  0  0  0  0  0
   53.8772   -2.2172   36.7690 F   0  0  0  0  0  0  0  0  0  0  0  0
   52.5066   -0.4650   36.4750 F   0  0  0  0  0  0  0  0  0  0  0  0
   45.5793    0.1616   44.7550 Cl  0  0  0  0  0  0  0  0  0  0  0  0
   42.5397   -6.2573   45.9103 C   0  0  0  0  0  0  0  0  0  0  0  0
   42.0183   -6.9824   48.6748 H   0  0  0  0  0  0  0  0  0  0  0  0
   42.3737   -8.3836   49.4390 H   0  0  0  0  0  0  0  0  0  0  0  0
   43.5292   -7.2540   49.2394 H   0  0  0  0  0  0  0  0  0  0  0  0
   40.4128   -7.3716   46.8228 H   0  0  0  0  0  0  0  0  0  0  0  0
   40.6529   -8.9047   46.2776 H   0  0  0  0  0  0  0  0  0  0  0  0
   39.1679   -7.5915   44.8457 H   0  0  0  0  0  0  0  0  0  0  0  0
   40.4489   -8.2337   44.0584 H   0  0  0  0  0  0  0  0  0  0  0  0
   37.9492   -5.5937   43.2842 H   0  0  0  0  0  0  0  0  0  0  0  0
   38.7769   -6.5586   42.2373 H   0  0  0  0  0  0  0  0  0  0  0  0
   39.3771   -4.0959   41.4227 H   0  0  0  0  0  0  0  0  0  0  0  0
   37.7675   -4.0276   41.7826 H   0  0  0  0  0  0  0  0  0  0  0  0
   38.2082   -6.2763   40.2997 H   0  0  0  0  0  0  0  0  0  0  0  0
   38.8589   -4.9631   39.5152 H   0  0  0  0  0  0  0  0  0  0  0  0
   36.7723   -3.9915   39.6863 H   0  0  0  0  0  0  0  0  0  0  0  0
   34.8527   -4.9483   40.2580 H   0  0  0  0  0  0  0  0  0  0  0  0
   35.9155   -5.2711   41.4571 H   0  0  0  0  0  0  0  0  0  0  0  0
   34.7219   -7.2607   40.7622 H   0  0  0  0  0  0  0  0  0  0  0  0
   36.3427   -7.4129   40.5658 H   0  0  0  0  0  0  0  0  0  0  0  0
   36.2881   -7.0133   37.0964 H   0  0  0  0  0  0  0  0  0  0  0  0
   37.2797   -7.2449   38.3785 H   0  0  0  0  0  0  0  0  0  0  0  0
   37.4632   -4.9796   37.6740 H   0  0  0  0  0  0  0  0  0  0  0  0
   35.8501   -4.7869   37.8214 H   0  0  0  0  0  0  0  0  0  0  0  0
   41.6638   -2.2868   45.9674 H   0  0  0  0  0  0  0  0  0  0  0  0
   43.2235   -0.5101   46.1678 H   0  0  0  0  0  0  0  0  0  0  0  0
   43.8551   -3.8808   42.8645 H   0  0  0  0  0  0  0  0  0  0  0  0
   49.1539   -2.7267   42.2778 H   0  0  0  0  0  0  0  0  0  0  0  0
   50.8904   -2.8429   40.6770 H   0  0  0  0  0  0  0  0  0  0  0  0
   48.2437   -1.7859   37.7060 H   0  0  0  0  0  0  0  0  0  0  0  0
   46.4905   -1.6578   39.2965 H   0  0  0  0  0  0  0  0  0  0  0  0
   51.3158   -3.3539   38.2622 H   0  0  0  0  0  0  0  0  0  0  0  0
   51.4839   -1.6844   38.3108 H   0  0  0  0  0  0  0  0  0  0  0  0
   50.2552   -1.5171   36.4625 H   0  0  0  0  0  0  0  0  0  0  0  0
   49.8883   -2.9098   36.4234 H   0  0  0  0  0  0  0  0  0  0  0  0
   51.4300   -2.5920   34.7842 H   0  0  0  0  0  0  0  0  0  0  0  0
   52.0757   -3.5560   35.9710 H   0  0  0  0  0  0  0  0  0  0  0  0
   43.5012   -6.1332   45.6649 H   0  0  0  0  0  0  0  0  0  0  0  0
   42.3118   -5.8195   46.7800 H   0  0  0  0  0  0  0  0  0  0  0  0
  1  2  1  0  0  0  0
  1 45  1  0  0  0  0
  1 46  1  0  0  0  0
  1 47  1  0  0  0  0
  2  3  2  0  0  0  0
  2  4  2  0  0  0  0
  2  5  1  0  0  0  0
  5  6  1  0  0  0  0
  5 44  1  0  0  0  0
  6  7  1  0  0  0  0
  6 48  1  0  0  0  0
  6 49  1  0  0  0  0
  7  8  1  0  0  0  0
  7 50  1  0  0  0  0
  7 51  1  0  0  0  0
  8  9  2  0  0  0  0
  8 12  1  0  0  0  0
  9 10  1  0  0  0  0
  9 44  1  0  0  0  0
 10 11  2  0  0  0  0
 10 22  1  0  0  0  0
 11 12  1  0  0  0  0
 12 13  1  0  0  0  0
 13 14  1  0  0  0  0
 13 52  1  0  0  0  0
 13 53  1  0  0  0  0
 14 15  1  0  0  0  0
 14 54  1  0  0  0  0
 14 55  1  0  0  0  0
 15 16  1  0  0  0  0
 15 56  1  0  0  0  0
 15 57  1  0  0  0  0
 16 17  1  0  0  0  0
 16 21  1  0  0  0  0
 16 58  1  0  0  0  0
 17 18  1  0  0  0  0
 17 59  1  0  0  0  0
 17 60  1  0  0  0  0
 18 19  1  0  0  0  0
 18 61  1  0  0  0  0
 18 62  1  0  0  0  0
 19 20  1  0  0  0  0
 20 21  1  0  0  0  0
 20 63  1  0  0  0  0
 20 64  1  0  0  0  0
 21 65  1  0  0  0  0
 21 66  1  0  0  0  0
 22 23  2  0  0  0  0
 22 27  1  0  0  0  0
 23 24  1  0  0  0  0
 23 67  1  0  0  0  0
 24 25  2  0  0  0  0
 24 68  1  0  0  0  0
 25 26  1  0  0  0  0
 25 43  1  0  0  0  0
 26 27  2  0  0  0  0
 26 28  1  0  0  0  0
 27 69  1  0  0  0  0
 28 29  3  0  0  0  0
 29 30  1  0  0  0  0
 30 31  2  0  0  0  0
 30 35  1  0  0  0  0
 31 32  1  0  0  0  0
 31 70  1  0  0  0  0
 32 33  2  0  0  0  0
 32 71  1  0  0  0  0
 33 34  1  0  0  0  0
 33 36  1  0  0  0  0
 34 35  2  0  0  0  0
 34 72  1  0  0  0  0
 35 73  1  0  0  0  0
 36 37  1  0  0  0  0
 36 74  1  0  0  0  0
 36 75  1  0  0  0  0
 37 38  1  0  0  0  0
 37 76  1  0  0  0  0
 37 77  1  0  0  0  0
 38 39  1  0  0  0  0
 38 78  1  0  0  0  0
 38 79  1  0  0  0  0
 39 40  1  0  0  0  0
 39 41  1  0  0  0  0
 39 42  1  0  0  0  0
 44 80  1  0  0  0  0
 44 81  1  0  0  0  0
M  CHG  2  16   1  37   1
M  END
