CatS_335:1_D
 OpenBabel12041818463D

 71 75  0  0  0  0  0  0  0  0999 V2000
   40.7183    0.1632   49.3891 C   0  0  0  0  0  0  0  0  0  0  0  0
   40.8351    0.7711   47.6854 S   0  0  0  0  0  0  0  0  0  0  0  0
   41.1527    2.1614   47.7371 O   0  0  0  0  0  0  0  0  0  0  0  0
   39.6612    0.3579   46.9873 O   0  0  0  0  0  0  0  0  0  0  0  0
   42.0900    0.0421   46.9561 N   0  0  0  0  0  0  0  0  0  0  0  0
   43.4500    0.3870   47.4213 C   0  0  0  0  0  0  0  0  0  0  0  0
   44.5081    0.0895   46.3344 C   0  0  0  0  0  0  0  0  0  0  0  0
   44.3211   -1.3064   45.7658 C   0  0  0  0  0  0  0  0  0  0  0  0
   43.1815   -1.9820   45.9341 C   0  0  0  0  0  0  0  0  0  0  0  0
   43.4248   -3.2140   45.2827 C   0  0  0  0  0  0  0  0  0  0  0  0
   44.6408   -3.1801   44.7829 N   0  0  0  0  0  0  0  0  0  0  0  0
   45.2455   -2.0015   45.0526 N   0  0  0  0  0  0  0  0  0  0  0  0
   46.6353   -1.6872   44.6880 C   0  0  0  0  0  0  0  0  0  0  0  0
   46.8515   -1.0045   43.3243 C   0  0  0  0  0  0  0  0  0  0  0  0
   47.9431   -1.7174   42.4974 C   0  0  0  0  0  0  0  0  0  0  0  0
   47.4208   -2.4204   41.2674 N   0  3  0  0  0  0  0  0  0  0  0  0
   48.4671   -3.2673   40.5898 C   0  0  0  0  0  0  0  0  0  0  0  0
   47.8321   -3.9944   39.3889 C   0  0  0  0  0  0  0  0  0  0  0  0
   47.2498   -3.0405   38.4800 O   0  0  0  0  0  0  0  0  0  0  0  0
   46.2033   -2.2639   39.0949 C   0  0  0  0  0  0  0  0  0  0  0  0
   46.7465   -1.4764   40.3038 C   0  0  0  0  0  0  0  0  0  0  0  0
   42.5692   -4.3835   45.1653 C   0  0  0  0  0  0  0  0  0  0  0  0
   42.7363   -5.5038   45.9711 C   0  0  0  0  0  0  0  0  0  0  0  0
   41.9023   -6.5943   45.8401 C   0  0  0  0  0  0  0  0  0  0  0  0
   40.8962   -6.5906   44.9047 C   0  0  0  0  0  0  0  0  0  0  0  0
   40.7176   -5.4781   44.0879 C   0  0  0  0  0  0  0  0  0  0  0  0
   41.5540   -4.3773   44.2312 C   0  0  0  0  0  0  0  0  0  0  0  0
   39.6722   -5.4883   43.0967 C   0  0  0  0  0  0  0  0  0  0  0  0
   38.7754   -5.4935   42.2690 C   0  0  0  0  0  0  0  0  0  0  0  0
   37.7065   -5.4967   41.3034 C   0  0  0  0  0  0  0  0  0  0  0  0
   36.7206   -4.5151   41.3589 C   0  0  0  0  0  0  0  0  0  0  0  0
   35.6973   -4.5163   40.4434 C   0  0  0  0  0  0  0  0  0  0  0  0
   35.6420   -5.4853   39.4683 C   0  0  0  0  0  0  0  0  0  0  0  0
   36.6193   -6.4735   39.3973 C   0  0  0  0  0  0  0  0  0  0  0  0
   37.6504   -6.4738   40.3196 C   0  0  0  0  0  0  0  0  0  0  0  0
   36.5765   -7.5145   38.3637 C   0  0  0  0  0  0  0  0  0  0  0  0
   35.7042   -7.5872   37.5188 O   0  0  0  0  0  0  0  0  0  0  0  0
   39.8505   -7.9713   44.7368 Cl  0  0  0  0  0  0  0  0  0  0  0  0
   42.0022   -1.4176   46.7166 C   0  0  0  0  0  0  0  0  0  0  0  0
   41.4480   -0.5018   49.5482 H   0  0  0  0  0  0  0  0  0  0  0  0
   40.8134    0.9268   50.0276 H   0  0  0  0  0  0  0  0  0  0  0  0
   39.8288   -0.2711   49.5313 H   0  0  0  0  0  0  0  0  0  0  0  0
   43.6610   -0.1474   48.2399 H   0  0  0  0  0  0  0  0  0  0  0  0
   43.4749    1.3657   47.6247 H   0  0  0  0  0  0  0  0  0  0  0  0
   45.4213    0.1632   46.7350 H   0  0  0  0  0  0  0  0  0  0  0  0
   44.4008    0.7525   45.5934 H   0  0  0  0  0  0  0  0  0  0  0  0
   47.1513   -2.5438   44.6867 H   0  0  0  0  0  0  0  0  0  0  0  0
   46.9420   -1.0205   45.3673 H   0  0  0  0  0  0  0  0  0  0  0  0
   47.1240   -0.0543   43.4751 H   0  0  0  0  0  0  0  0  0  0  0  0
   45.9936   -1.0507   42.8124 H   0  0  0  0  0  0  0  0  0  0  0  0
   48.3914   -2.3932   43.0824 H   0  0  0  0  0  0  0  0  0  0  0  0
   48.5731   -1.0092   42.1787 H   0  0  0  0  0  0  0  0  0  0  0  0
   46.7740   -2.9977   41.5474 H   0  0  0  0  0  0  0  0  0  0  0  0
   48.8273   -3.9384   41.2379 H   0  0  0  0  0  0  0  0  0  0  0  0
   49.2150   -2.6851   40.2709 H   0  0  0  0  0  0  0  0  0  0  0  0
   47.1223   -4.6181   39.7163 H   0  0  0  0  0  0  0  0  0  0  0  0
   48.5412   -4.5100   38.9081 H   0  0  0  0  0  0  0  0  0  0  0  0
   45.4741   -2.8764   39.3997 H   0  0  0  0  0  0  0  0  0  0  0  0
   45.8490   -1.6137   38.4226 H   0  0  0  0  0  0  0  0  0  0  0  0
   47.4059   -0.7936   39.9894 H   0  0  0  0  0  0  0  0  0  0  0  0
   45.9869   -1.0194   40.7667 H   0  0  0  0  0  0  0  0  0  0  0  0
   43.4683   -5.5191   46.6523 H   0  0  0  0  0  0  0  0  0  0  0  0
   42.0306   -7.3920   46.4293 H   0  0  0  0  0  0  0  0  0  0  0  0
   41.4185   -3.5734   43.6519 H   0  0  0  0  0  0  0  0  0  0  0  0
   36.7579   -3.8088   42.0659 H   0  0  0  0  0  0  0  0  0  0  0  0
   34.9900   -3.8107   40.4855 H   0  0  0  0  0  0  0  0  0  0  0  0
   34.8935   -5.4796   38.8052 H   0  0  0  0  0  0  0  0  0  0  0  0
   38.3572   -7.1801   40.2772 H   0  0  0  0  0  0  0  0  0  0  0  0
   37.3035   -8.2011   38.3533 H   0  0  0  0  0  0  0  0  0  0  0  0
   41.1628   -1.6053   46.2065 H   0  0  0  0  0  0  0  0  0  0  0  0
   42.0087   -1.8614   47.6127 H   0  0  0  0  0  0  0  0  0  0  0  0
  1  2  1  0  0  0  0
  1 40  1  0  0  0  0
  1 41  1  0  0  0  0
  1 42  1  0  0  0  0
  2  3  2  0  0  0  0
  2  4  2  0  0  0  0
  2  5  1  0  0  0  0
  5  6  1  0  0  0  0
  5 39  1  0  0  0  0
  6  7  1  0  0  0  0
  6 43  1  0  0  0  0
  6 44  1  0  0  0  0
  7  8  1  0  0  0  0
  7 45  1  0  0  0  0
  7 46  1  0  0  0  0
  8  9  2  0  0  0  0
  8 12  1  0  0  0  0
  9 10  1  0  0  0  0
  9 39  1  0  0  0  0
 10 11  2  0  0  0  0
 10 22  1  0  0  0  0
 11 12  1  0  0  0  0
 12 13  1  0  0  0  0
 13 14  1  0  0  0  0
 13 47  1  0  0  0  0
 13 48  1  0  0  0  0
 14 15  1  0  0  0  0
 14 49  1  0  0  0  0
 14 50  1  0  0  0  0
 15 16  1  0  0  0  0
 15 51  1  0  0  0  0
 15 52  1  0  0  0  0
 16 17  1  0  0  0  0
 16 21  1  0  0  0  0
 16 53  1  0  0  0  0
 17 18  1  0  0  0  0
 17 54  1  0  0  0  0
 17 55  1  0  0  0  0
 18 19  1  0  0  0  0
 18 56  1  0  0  0  0
 18 57  1  0  0  0  0
 19 20  1  0  0  0  0
 20 21  1  0  0  0  0
 20 58  1  0  0  0  0
 20 59  1  0  0  0  0
 21 60  1  0  0  0  0
 21 61  1  0  0  0  0
 22 23  2  0  0  0  0
 22 27  1  0  0  0  0
 23 24  1  0  0  0  0
 23 62  1  0  0  0  0
 24 25  2  0  0  0  0
 24 63  1  0  0  0  0
 25 26  1  0  0  0  0
 25 38  1  0  0  0  0
 26 27  2  0  0  0  0
 26 28  1  0  0  0  0
 27 64  1  0  0  0  0
 28 29  3  0  0  0  0
 29 30  1  0  0  0  0
 30 31  2  0  0  0  0
 30 35  1  0  0  0  0
 31 32  1  0  0  0  0
 31 65  1  0  0  0  0
 32 33  2  0  0  0  0
 32 66  1  0  0  0  0
 33 34  1  0  0  0  0
 33 67  1  0  0  0  0
 34 35  2  0  0  0  0
 34 36  1  0  0  0  0
 35 68  1  0  0  0  0
 36 37  2  0  0  0  0
 36 69  1  0  0  0  0
 39 70  1  0  0  0  0
 39 71  1  0  0  0  0
M  CHG  1  16   1
M  END
