CatS_243:1_D
 OpenBabel12041818463D

 91 96  0  0  1  0  0  0  0  0999 V2000
   39.3349  -13.6999   43.1354 C   0  0  0  0  0  0  0  0  0  0  0  0
   38.6546  -12.9969   44.3274 C   0  0  1  0  0  0  0  0  0  0  0  0
   37.1684  -12.7654   43.9885 C   0  0  0  0  0  0  0  0  0  0  0  0
   36.4474  -14.0129   43.9636 O   0  0  0  0  0  0  0  0  0  0  0  0
   36.4662  -14.6837   45.2381 C   0  0  0  0  0  0  0  0  0  0  0  0
   37.9100  -15.0150   45.6635 C   0  0  0  0  0  0  0  0  0  0  0  0
   38.7623  -13.7672   45.6279 N   0  3  1  0  0  0  0  0  0  0  0  0
   40.1883  -14.0156   46.0570 C   0  0  0  0  0  0  0  0  0  0  0  0
   40.5715  -13.2587   47.3454 C   0  0  0  0  0  0  0  0  0  0  0  0
   41.7825  -12.3413   47.0970 C   0  0  0  0  0  0  0  0  0  0  0  0
   41.5054  -10.8978   47.1109 N   0  0  0  0  0  0  0  0  0  0  0  0
   41.5805  -10.0016   48.1254 C   0  0  0  0  0  0  0  0  0  0  0  0
   41.3083   -8.7536   47.7350 C   0  0  0  0  0  0  0  0  0  0  0  0
   41.0434   -8.8918   46.3510 C   0  0  0  0  0  0  0  0  0  0  0  0
   41.1706  -10.1612   46.0294 N   0  0  0  0  0  0  0  0  0  0  0  0
   40.6879   -7.8755   45.3736 C   0  0  0  0  0  0  0  0  0  0  0  0
   39.4787   -7.8964   44.6874 C   0  0  0  0  0  0  0  0  0  0  0  0
   39.1639   -6.9086   43.7797 C   0  0  0  0  0  0  0  0  0  0  0  0
   40.0474   -5.8858   43.5370 C   0  0  0  0  0  0  0  0  0  0  0  0
   41.2654   -5.8524   44.2093 C   0  0  0  0  0  0  0  0  0  0  0  0
   41.5744   -6.8496   45.1257 C   0  0  0  0  0  0  0  0  0  0  0  0
   42.2001   -4.7877   43.9507 C   0  0  0  0  0  0  0  0  0  0  0  0
   42.9967   -3.8890   43.7356 C   0  0  0  0  0  0  0  0  0  0  0  0
   43.9436   -2.8330   43.4865 C   0  0  0  0  0  0  0  0  0  0  0  0
   44.4268   -2.6242   42.1997 C   0  0  0  0  0  0  0  0  0  0  0  0
   45.3322   -1.6220   41.9636 C   0  0  0  0  0  0  0  0  0  0  0  0
   45.7705   -0.8161   42.9942 C   0  0  0  0  0  0  0  0  0  0  0  0
   45.2902   -1.0202   44.2737 C   0  0  0  0  0  0  0  0  0  0  0  0
   44.3838   -2.0189   44.5248 C   0  0  0  0  0  0  0  0  0  0  0  0
   46.7776    0.2695   42.6445 C   0  0  0  0  0  0  0  0  0  0  0  0
   46.5909    0.9009   41.2916 N   0  3  0  0  0  0  0  0  0  0  0  0
   47.7724    0.7204   40.3778 C   0  0  0  0  0  0  0  0  0  0  0  0
   48.0103   -0.7067   39.9072 C   0  0  0  0  0  0  0  0  0  0  0  0
   47.2577   -1.1553   38.8450 C   0  0  0  0  0  0  0  0  0  0  0  0
   47.4218   -2.4343   38.3659 C   0  0  0  0  0  0  0  0  0  0  0  0
   48.3434   -3.2744   38.9495 C   0  0  0  0  0  0  0  0  0  0  0  0
   49.0985   -2.8316   40.0126 C   0  0  0  0  0  0  0  0  0  0  0  0
   48.9316   -1.5515   40.4893 C   0  0  0  0  0  0  0  0  0  0  0  0
   48.5515   -4.8911   38.3438 Cl  0  0  0  0  0  0  0  0  0  0  0  0
   39.6456   -4.6387   42.3937 Cl  0  0  0  0  0  0  0  0  0  0  0  0
   41.3263   -7.5521   48.6722 C   0  0  0  0  0  0  0  0  0  0  0  0
   41.7948   -7.8670   50.0480 N   0  0  0  0  0  0  0  0  0  0  0  0
   42.5398   -9.1236   50.2793 C   0  0  0  0  0  0  0  0  0  0  0  0
   41.9338  -10.3462   49.5591 C   0  0  0  0  0  0  0  0  0  0  0  0
   41.6377   -7.0185   51.0882 C   0  0  0  0  0  0  0  0  0  0  0  0
   42.0724   -7.2151   52.2148 O   0  0  0  0  0  0  0  0  0  0  0  0
   40.8621   -5.7516   50.7902 C   0  0  0  0  0  0  0  0  0  0  0  0
   40.4499   -5.0797   51.9901 O   0  0  0  0  0  0  0  0  0  0  0  0
   39.1347  -12.1315   44.4705 H   0  0  0  0  0  0  0  0  0  0  0  0
   38.7809  -13.5590   42.3149 H   0  0  0  0  0  0  0  0  0  0  0  0
   40.2484  -13.3183   42.9946 H   0  0  0  0  0  0  0  0  0  0  0  0
   39.4166  -14.6787   43.3237 H   0  0  0  0  0  0  0  0  0  0  0  0
   37.0996  -12.3265   43.0926 H   0  0  0  0  0  0  0  0  0  0  0  0
   36.7672  -12.1795   44.6926 H   0  0  0  0  0  0  0  0  0  0  0  0
   35.9391  -15.5309   45.1716 H   0  0  0  0  0  0  0  0  0  0  0  0
   36.0632  -14.0778   45.9240 H   0  0  0  0  0  0  0  0  0  0  0  0
   38.2917  -15.6971   45.0398 H   0  0  0  0  0  0  0  0  0  0  0  0
   37.9011  -15.3767   46.5958 H   0  0  0  0  0  0  0  0  0  0  0  0
   38.4106  -13.2095   46.2581 H   0  0  0  0  0  0  0  0  0  0  0  0
   40.7992  -13.7253   45.3205 H   0  0  0  0  0  0  0  0  0  0  0  0
   40.2763  -14.9930   46.2488 H   0  0  0  0  0  0  0  0  0  0  0  0
   40.7981  -13.9194   48.0610 H   0  0  0  0  0  0  0  0  0  0  0  0
   39.7957  -12.6955   47.6304 H   0  0  0  0  0  0  0  0  0  0  0  0
   42.1669  -12.5737   46.2035 H   0  0  0  0  0  0  0  0  0  0  0  0
   42.4071  -12.5037   47.8610 H   0  0  0  0  0  0  0  0  0  0  0  0
   38.8291   -8.6381   44.8547 H   0  0  0  0  0  0  0  0  0  0  0  0
   38.2890   -6.9365   43.2962 H   0  0  0  0  0  0  0  0  0  0  0  0
   42.4487   -6.8228   45.6105 H   0  0  0  0  0  0  0  0  0  0  0  0
   44.1143   -3.2041   41.4473 H   0  0  0  0  0  0  0  0  0  0  0  0
   45.6778   -1.4741   41.0369 H   0  0  0  0  0  0  0  0  0  0  0  0
   45.6054   -0.4360   45.0216 H   0  0  0  0  0  0  0  0  0  0  0  0
   44.0401   -2.1615   45.4530 H   0  0  0  0  0  0  0  0  0  0  0  0
   47.6926   -0.1325   42.6780 H   0  0  0  0  0  0  0  0  0  0  0  0
   46.6420    1.0008   43.3129 H   0  0  0  0  0  0  0  0  0  0  0  0
   46.4165    1.7895   41.3909 H   0  0  0  0  0  0  0  0  0  0  0  0
   45.8448    0.5581   40.8969 H   0  0  0  0  0  0  0  0  0  0  0  0
   48.5908    1.0304   40.8619 H   0  0  0  0  0  0  0  0  0  0  0  0
   47.5735    1.2544   39.5560 H   0  0  0  0  0  0  0  0  0  0  0  0
   46.5875   -0.5474   38.4191 H   0  0  0  0  0  0  0  0  0  0  0  0
   46.8721   -2.7538   37.5940 H   0  0  0  0  0  0  0  0  0  0  0  0
   49.7681   -3.4403   40.4382 H   0  0  0  0  0  0  0  0  0  0  0  0
   49.4811   -1.2324   41.2615 H   0  0  0  0  0  0  0  0  0  0  0  0
   40.3990   -7.1822   48.7297 H   0  0  0  0  0  0  0  0  0  0  0  0
   41.9762   -6.8956   48.2892 H   0  0  0  0  0  0  0  0  0  0  0  0
   42.5533   -9.3078   51.2621 H   0  0  0  0  0  0  0  0  0  0  0  0
   43.4578   -8.9915   49.9053 H   0  0  0  0  0  0  0  0  0  0  0  0
   42.5961  -11.0955   49.5648 H   0  0  0  0  0  0  0  0  0  0  0  0
   41.1004  -10.6204   50.0389 H   0  0  0  0  0  0  0  0  0  0  0  0
   40.0516   -5.9861   50.2535 H   0  0  0  0  0  0  0  0  0  0  0  0
   41.4624   -5.1340   50.2821 H   0  0  0  0  0  0  0  0  0  0  0  0
   39.6393   -5.5174   52.3945 H   0  0  0  0  0  0  0  0  0  0  0  0
  1  2  1  0  0  0  0
  1 50  1  0  0  0  0
  1 51  1  0  0  0  0
  1 52  1  0  0  0  0
  2  3  1  0  0  0  0
  2  7  1  0  0  0  0
  2 49  1  1  0  0  0
  3  4  1  0  0  0  0
  3 53  1  0  0  0  0
  3 54  1  0  0  0  0
  4  5  1  0  0  0  0
  5  6  1  0  0  0  0
  5 55  1  0  0  0  0
  5 56  1  0  0  0  0
  6  7  1  0  0  0  0
  6 57  1  0  0  0  0
  6 58  1  0  0  0  0
  7  8  1  0  0  0  0
  7 59  1  1  0  0  0
  8  9  1  0  0  0  0
  8 60  1  0  0  0  0
  8 61  1  0  0  0  0
  9 10  1  0  0  0  0
  9 62  1  0  0  0  0
  9 63  1  0  0  0  0
 10 11  1  0  0  0  0
 10 64  1  0  0  0  0
 10 65  1  0  0  0  0
 11 12  1  0  0  0  0
 11 15  1  0  0  0  0
 12 13  2  0  0  0  0
 12 44  1  0  0  0  0
 13 14  1  0  0  0  0
 13 41  1  0  0  0  0
 14 15  2  0  0  0  0
 14 16  1  0  0  0  0
 16 17  2  0  0  0  0
 16 21  1  0  0  0  0
 17 18  1  0  0  0  0
 17 66  1  0  0  0  0
 18 19  2  0  0  0  0
 18 67  1  0  0  0  0
 19 20  1  0  0  0  0
 19 40  1  0  0  0  0
 20 21  2  0  0  0  0
 20 22  1  0  0  0  0
 21 68  1  0  0  0  0
 22 23  3  0  0  0  0
 23 24  1  0  0  0  0
 24 25  2  0  0  0  0
 24 29  1  0  0  0  0
 25 26  1  0  0  0  0
 25 69  1  0  0  0  0
 26 27  2  0  0  0  0
 26 70  1  0  0  0  0
 27 28  1  0  0  0  0
 27 30  1  0  0  0  0
 28 29  2  0  0  0  0
 28 71  1  0  0  0  0
 29 72  1  0  0  0  0
 30 31  1  0  0  0  0
 30 73  1  0  0  0  0
 30 74  1  0  0  0  0
 31 32  1  0  0  0  0
 31 75  1  0  0  0  0
 31 76  1  0  0  0  0
 32 33  1  0  0  0  0
 32 77  1  0  0  0  0
 32 78  1  0  0  0  0
 33 34  2  0  0  0  0
 33 38  1  0  0  0  0
 34 35  1  0  0  0  0
 34 79  1  0  0  0  0
 35 36  2  0  0  0  0
 35 80  1  0  0  0  0
 36 37  1  0  0  0  0
 36 39  1  0  0  0  0
 37 38  2  0  0  0  0
 37 81  1  0  0  0  0
 38 82  1  0  0  0  0
 41 42  1  0  0  0  0
 41 83  1  0  0  0  0
 41 84  1  0  0  0  0
 42 43  1  0  0  0  0
 42 45  1  0  0  0  0
 43 44  1  0  0  0  0
 43 85  1  0  0  0  0
 43 86  1  0  0  0  0
 44 87  1  0  0  0  0
 44 88  1  0  0  0  0
 45 46  2  0  0  0  0
 45 47  1  0  0  0  0
 47 48  1  0  0  0  0
 47 89  1  0  0  0  0
 47 90  1  0  0  0  0
 48 91  1  0  0  0  0
M  CHG  2   7   1  31   1
M  END
