CatS_30:1_D
 OpenBabel12041818463D

 82 86  0  0  0  0  0  0  0  0999 V2000
   40.4433  -10.5793   45.8639 C   0  0  0  0  0  0  0  0  0  0  0  0
   39.7329   -9.2087   46.8106 S   0  0  0  0  0  0  0  0  0  0  0  0
   40.1826   -9.3374   48.1584 O   0  0  0  0  0  0  0  0  0  0  0  0
   38.3250   -9.1974   46.5798 O   0  0  0  0  0  0  0  0  0  0  0  0
   40.3612   -7.8322   46.2011 N   0  0  0  0  0  0  0  0  0  0  0  0
   41.7945   -7.5739   46.4635 C   0  0  0  0  0  0  0  0  0  0  0  0
   42.2229   -6.1084   46.2051 C   0  0  0  0  0  0  0  0  0  0  0  0
   41.5354   -5.5105   44.9889 C   0  0  0  0  0  0  0  0  0  0  0  0
   40.5541   -6.1609   44.3548 C   0  0  0  0  0  0  0  0  0  0  0  0
   40.1752   -5.2675   43.3245 C   0  0  0  0  0  0  0  0  0  0  0  0
   40.9332   -4.2019   43.4142 N   0  0  0  0  0  0  0  0  0  0  0  0
   41.8051   -4.2964   44.4357 N   0  0  0  0  0  0  0  0  0  0  0  0
   42.7266   -3.2085   44.7931 C   0  0  0  0  0  0  0  0  0  0  0  0
   42.3310   -1.7257   44.9168 C   0  0  0  0  0  0  0  0  0  0  0  0
   42.2919   -1.2804   46.3975 C   0  0  0  0  0  0  0  0  0  0  0  0
   41.6468    0.0689   46.6188 N   0  3  0  0  0  0  0  0  0  0  0  0
   40.3355   -0.0171   47.3624 C   0  0  0  0  0  0  0  0  0  0  0  0
   40.5874   -0.4657   48.8156 C   0  0  0  0  0  0  0  0  0  0  0  0
   41.5008    0.5620   49.5109 C   0  0  0  0  0  0  0  0  0  0  0  0
   42.8294    0.7100   48.7410 C   0  0  0  0  0  0  0  0  0  0  0  0
   42.5722    1.0731   47.2616 C   0  0  0  0  0  0  0  0  0  0  0  0
   39.1644   -5.3757   42.2881 C   0  0  0  0  0  0  0  0  0  0  0  0
   38.0817   -4.5161   42.1749 C   0  0  0  0  0  0  0  0  0  0  0  0
   37.1745   -4.6760   41.1519 C   0  0  0  0  0  0  0  0  0  0  0  0
   37.3124   -5.6840   40.2182 C   0  0  0  0  0  0  0  0  0  0  0  0
   38.3951   -6.5429   40.3402 C   0  0  0  0  0  0  0  0  0  0  0  0
   39.3063   -6.3809   41.3566 C   0  0  0  0  0  0  0  0  0  0  0  0
   38.6659   -7.8910   39.1787 S   0  0  0  0  0  0  0  0  0  0  0  0
   40.1927   -7.6218   38.2262 C   0  0  0  0  0  0  0  0  0  0  0  0
   41.0406   -8.8904   37.9920 C   0  0  0  0  0  0  0  0  0  0  0  0
   41.9003   -8.8233   36.7523 N   0  3  0  0  0  0  0  0  0  0  0  0
   42.5065  -10.1329   36.3410 C   0  0  0  0  0  0  0  0  0  0  0  0
   43.5828   -9.7131   35.3269 C   0  0  0  0  0  0  0  0  0  0  0  0
   43.9754   -8.2663   35.6974 C   0  0  0  0  0  0  0  0  0  0  0  0
   43.0172   -7.8244   36.8214 C   0  0  0  0  0  0  0  0  0  0  0  0
   36.2574   -5.7818   39.1187 C   0  0  0  0  0  0  0  0  0  0  0  0
   35.1980   -4.8936   39.2781 F   0  0  0  0  0  0  0  0  0  0  0  0
   36.8065   -5.5273   37.8664 F   0  0  0  0  0  0  0  0  0  0  0  0
   35.7181   -7.0626   39.0823 F   0  0  0  0  0  0  0  0  0  0  0  0
   40.0707   -7.5410   44.7788 C   0  0  0  0  0  0  0  0  0  0  0  0
   41.0652  -10.2100   45.1733 H   0  0  0  0  0  0  0  0  0  0  0  0
   40.9450  -11.1893   46.4771 H   0  0  0  0  0  0  0  0  0  0  0  0
   39.7119  -11.0954   45.4183 H   0  0  0  0  0  0  0  0  0  0  0  0
   42.3372   -8.1723   45.8740 H   0  0  0  0  0  0  0  0  0  0  0  0
   41.9498   -7.7543   47.4347 H   0  0  0  0  0  0  0  0  0  0  0  0
   43.2124   -6.0817   46.0632 H   0  0  0  0  0  0  0  0  0  0  0  0
   41.9550   -5.5672   47.0021 H   0  0  0  0  0  0  0  0  0  0  0  0
   43.4541   -3.2371   44.1076 H   0  0  0  0  0  0  0  0  0  0  0  0
   42.9034   -3.4284   45.7524 H   0  0  0  0  0  0  0  0  0  0  0  0
   41.4276   -1.5923   44.5092 H   0  0  0  0  0  0  0  0  0  0  0  0
   43.0148   -1.1742   44.4390 H   0  0  0  0  0  0  0  0  0  0  0  0
   43.2305   -1.2426   46.7406 H   0  0  0  0  0  0  0  0  0  0  0  0
   41.7319   -1.9500   46.8854 H   0  0  0  0  0  0  0  0  0  0  0  0
   41.4628    0.4040   45.7920 H   0  0  0  0  0  0  0  0  0  0  0  0
   39.7370   -0.6767   46.9077 H   0  0  0  0  0  0  0  0  0  0  0  0
   39.8992    0.8827   47.3669 H   0  0  0  0  0  0  0  0  0  0  0  0
   41.0269   -1.3640   48.8186 H   0  0  0  0  0  0  0  0  0  0  0  0
   39.7172   -0.5256   49.3045 H   0  0  0  0  0  0  0  0  0  0  0  0
   41.6904    0.2578   50.4445 H   0  0  0  0  0  0  0  0  0  0  0  0
   41.0373    1.4479   49.5280 H   0  0  0  0  0  0  0  0  0  0  0  0
   43.3334   -0.1525   48.7861 H   0  0  0  0  0  0  0  0  0  0  0  0
   43.3615    1.4452   49.1610 H   0  0  0  0  0  0  0  0  0  0  0  0
   42.1584    1.9821   47.2112 H   0  0  0  0  0  0  0  0  0  0  0  0
   43.4448    1.0644   46.7733 H   0  0  0  0  0  0  0  0  0  0  0  0
   37.9597   -3.7780   42.8384 H   0  0  0  0  0  0  0  0  0  0  0  0
   36.3990   -4.0485   41.0834 H   0  0  0  0  0  0  0  0  0  0  0  0
   40.0860   -7.0038   41.4210 H   0  0  0  0  0  0  0  0  0  0  0  0
   40.7541   -6.9555   38.7171 H   0  0  0  0  0  0  0  0  0  0  0  0
   39.9081   -7.3036   37.3219 H   0  0  0  0  0  0  0  0  0  0  0  0
   40.4242   -9.6736   37.9100 H   0  0  0  0  0  0  0  0  0  0  0  0
   41.6601   -8.9767   38.7722 H   0  0  0  0  0  0  0  0  0  0  0  0
   41.3617   -8.5548   36.0663 H   0  0  0  0  0  0  0  0  0  0  0  0
   41.8242  -10.7297   35.9187 H   0  0  0  0  0  0  0  0  0  0  0  0
   42.8740  -10.6555   37.1103 H   0  0  0  0  0  0  0  0  0  0  0  0
   43.2188   -9.7497   34.3962 H   0  0  0  0  0  0  0  0  0  0  0  0
   44.3730  -10.3252   35.3572 H   0  0  0  0  0  0  0  0  0  0  0  0
   43.8795   -7.6667   34.9030 H   0  0  0  0  0  0  0  0  0  0  0  0
   44.9282   -8.2166   35.9970 H   0  0  0  0  0  0  0  0  0  0  0  0
   43.4704   -7.8555   37.7122 H   0  0  0  0  0  0  0  0  0  0  0  0
   42.7010   -6.8824   36.7105 H   0  0  0  0  0  0  0  0  0  0  0  0
   39.0827   -7.5958   44.6343 H   0  0  0  0  0  0  0  0  0  0  0  0
   40.5590   -8.2156   44.2252 H   0  0  0  0  0  0  0  0  0  0  0  0
  1  2  1  0  0  0  0
  1 41  1  0  0  0  0
  1 42  1  0  0  0  0
  1 43  1  0  0  0  0
  2  3  2  0  0  0  0
  2  4  2  0  0  0  0
  2  5  1  0  0  0  0
  5  6  1  0  0  0  0
  5 40  1  0  0  0  0
  6  7  1  0  0  0  0
  6 44  1  0  0  0  0
  6 45  1  0  0  0  0
  7  8  1  0  0  0  0
  7 46  1  0  0  0  0
  7 47  1  0  0  0  0
  8  9  2  0  0  0  0
  8 12  1  0  0  0  0
  9 10  1  0  0  0  0
  9 40  1  0  0  0  0
 10 11  2  0  0  0  0
 10 22  1  0  0  0  0
 11 12  1  0  0  0  0
 12 13  1  0  0  0  0
 13 14  1  0  0  0  0
 13 48  1  0  0  0  0
 13 49  1  0  0  0  0
 14 15  1  0  0  0  0
 14 50  1  0  0  0  0
 14 51  1  0  0  0  0
 15 16  1  0  0  0  0
 15 52  1  0  0  0  0
 15 53  1  0  0  0  0
 16 17  1  0  0  0  0
 16 21  1  0  0  0  0
 16 54  1  0  0  0  0
 17 18  1  0  0  0  0
 17 55  1  0  0  0  0
 17 56  1  0  0  0  0
 18 19  1  0  0  0  0
 18 57  1  0  0  0  0
 18 58  1  0  0  0  0
 19 20  1  0  0  0  0
 19 59  1  0  0  0  0
 19 60  1  0  0  0  0
 20 21  1  0  0  0  0
 20 61  1  0  0  0  0
 20 62  1  0  0  0  0
 21 63  1  0  0  0  0
 21 64  1  0  0  0  0
 22 23  2  0  0  0  0
 22 27  1  0  0  0  0
 23 24  1  0  0  0  0
 23 65  1  0  0  0  0
 24 25  2  0  0  0  0
 24 66  1  0  0  0  0
 25 26  1  0  0  0  0
 25 36  1  0  0  0  0
 26 27  2  0  0  0  0
 26 28  1  0  0  0  0
 27 67  1  0  0  0  0
 28 29  1  0  0  0  0
 29 30  1  0  0  0  0
 29 68  1  0  0  0  0
 29 69  1  0  0  0  0
 30 31  1  0  0  0  0
 30 70  1  0  0  0  0
 30 71  1  0  0  0  0
 31 32  1  0  0  0  0
 31 35  1  0  0  0  0
 31 72  1  0  0  0  0
 32 33  1  0  0  0  0
 32 73  1  0  0  0  0
 32 74  1  0  0  0  0
 33 34  1  0  0  0  0
 33 75  1  0  0  0  0
 33 76  1  0  0  0  0
 34 35  1  0  0  0  0
 34 77  1  0  0  0  0
 34 78  1  0  0  0  0
 35 79  1  0  0  0  0
 35 80  1  0  0  0  0
 36 37  1  0  0  0  0
 36 38  1  0  0  0  0
 36 39  1  0  0  0  0
 40 81  1  0  0  0  0
 40 82  1  0  0  0  0
M  CHG  2  16   1  31   1
M  END
