CatS_234:1_D
 OpenBabel12041818463D

 92 97  0  0  1  0  0  0  0  0999 V2000
   39.0168   -5.8048   39.5659 C   0  0  0  0  0  0  0  0  0  0  0  0
   38.0396   -5.2788   41.0000 S   0  0  0  0  0  0  0  0  0  0  0  0
   36.7995   -5.9828   40.9884 O   0  0  0  0  0  0  0  0  0  0  0  0
   37.9842   -3.8539   41.0052 O   0  0  0  0  0  0  0  0  0  0  0  0
   38.8444   -5.7086   42.3445 N   0  0  0  0  0  0  0  0  0  0  0  0
   39.0893   -7.1569   42.4946 C   0  0  0  0  0  0  0  0  0  0  0  0
   39.3100   -7.4823   43.9854 C   0  0  0  0  0  0  0  0  0  0  0  0
   40.4067   -6.6173   44.5851 C   0  0  0  0  0  0  0  0  0  0  0  0
   40.7484   -5.4670   43.9995 C   0  0  0  0  0  0  0  0  0  0  0  0
   41.8179   -4.9844   44.7907 C   0  0  0  0  0  0  0  0  0  0  0  0
   42.0080   -5.8397   45.7759 N   0  0  0  0  0  0  0  0  0  0  0  0
   41.1429   -6.8877   45.6976 N   0  0  0  0  0  0  0  0  0  0  0  0
   41.1984   -8.0734   46.5762 C   0  0  0  0  0  0  0  0  0  0  0  0
   41.3760   -9.5239   46.0592 C   0  0  0  0  0  0  0  0  0  0  0  0
   40.0307  -10.2854   46.0364 C   0  0  0  0  0  0  0  0  0  0  0  0
   39.8854  -11.4744   45.1144 N   0  3  2  0  0  0  0  0  0  0  0  0
   38.4787  -11.6449   44.5886 C   0  0  0  0  0  0  0  0  0  0  0  0
   38.4030  -12.5651   43.3514 C   0  0  0  0  0  0  0  0  0  0  0  0
   38.3257  -14.0513   43.7426 C   0  0  0  0  0  0  0  0  0  0  0  0
   39.5564  -14.5939   44.3374 N   0  0  0  0  0  0  0  0  0  0  0  0
   39.7487  -14.0545   45.6910 C   0  0  0  0  0  0  0  0  0  0  0  0
   40.5079  -12.7107   45.7445 C   0  0  0  0  0  0  0  0  0  0  0  0
   42.6192   -3.7830   44.5783 C   0  0  0  0  0  0  0  0  0  0  0  0
   42.3564   -2.6596   45.3529 C   0  0  0  0  0  0  0  0  0  0  0  0
   43.0629   -1.4907   45.1765 C   0  0  0  0  0  0  0  0  0  0  0  0
   44.0360   -1.4144   44.2143 C   0  0  0  0  0  0  0  0  0  0  0  0
   44.3212   -2.5238   43.4218 C   0  0  0  0  0  0  0  0  0  0  0  0
   43.6199   -3.7148   43.6197 C   0  0  0  0  0  0  0  0  0  0  0  0
   45.3319   -2.2950   42.4181 C   0  0  0  0  0  0  0  0  0  0  0  0
   46.1793   -2.2641   41.5379 C   0  0  0  0  0  0  0  0  0  0  0  0
   47.1605   -2.3943   40.4902 C   0  0  0  0  0  0  0  0  0  0  0  0
   46.9719   -1.9471   39.1861 C   0  0  0  0  0  0  0  0  0  0  0  0
   47.9430   -2.1776   38.2407 C   0  0  0  0  0  0  0  0  0  0  0  0
   49.1146   -2.8351   38.5702 C   0  0  0  0  0  0  0  0  0  0  0  0
   49.3114   -3.2459   39.8724 C   0  0  0  0  0  0  0  0  0  0  0  0
   48.3453   -3.0426   40.8203 C   0  0  0  0  0  0  0  0  0  0  0  0
   50.1901   -3.0856   37.5166 C   0  0  0  0  0  0  0  0  0  0  0  0
   51.1565   -1.9463   37.2671 N   0  3  0  0  0  0  0  0  0  0  0  0
   52.1198   -2.1266   36.1152 C   0  0  0  0  0  0  0  0  0  0  0  0
   52.9776   -0.9165   35.7608 C   0  0  0  0  0  0  0  0  0  0  0  0
   52.9554    0.1732   36.6049 C   0  0  0  0  0  0  0  0  0  0  0  0
   53.6769    1.3063   36.3077 C   0  0  0  0  0  0  0  0  0  0  0  0
   54.4312    1.3591   35.1578 C   0  0  0  0  0  0  0  0  0  0  0  0
   54.4636    0.2734   34.3118 C   0  0  0  0  0  0  0  0  0  0  0  0
   53.7376   -0.8572   34.6112 C   0  0  0  0  0  0  0  0  0  0  0  0
   55.3322    2.7964   34.7729 Cl  0  0  0  0  0  0  0  0  0  0  0  0
   44.9113    0.0775   43.9892 Cl  0  0  0  0  0  0  0  0  0  0  0  0
   40.0664   -4.9608   42.7294 C   0  0  0  0  0  0  0  0  0  0  0  0
   39.8515   -6.2520   39.8870 H   0  0  0  0  0  0  0  0  0  0  0  0
   38.4847   -6.4439   39.0105 H   0  0  0  0  0  0  0  0  0  0  0  0
   39.2530   -5.0084   39.0091 H   0  0  0  0  0  0  0  0  0  0  0  0
   39.8997   -7.4168   41.9694 H   0  0  0  0  0  0  0  0  0  0  0  0
   38.3001   -7.6679   42.1538 H   0  0  0  0  0  0  0  0  0  0  0  0
   39.5655   -8.4449   44.0754 H   0  0  0  0  0  0  0  0  0  0  0  0
   38.4595   -7.2961   44.4772 H   0  0  0  0  0  0  0  0  0  0  0  0
   40.3427   -8.0698   47.0936 H   0  0  0  0  0  0  0  0  0  0  0  0
   42.0734   -7.9281   47.0381 H   0  0  0  0  0  0  0  0  0  0  0  0
   42.0160  -10.0074   46.6563 H   0  0  0  0  0  0  0  0  0  0  0  0
   41.7279   -9.4828   45.1239 H   0  0  0  0  0  0  0  0  0  0  0  0
   39.3222   -9.6262   45.7845 H   0  0  0  0  0  0  0  0  0  0  0  0
   39.9599  -10.6802   46.9524 H   0  0  0  0  0  0  0  0  0  0  0  0
   40.3976  -11.2730   44.3892 H   0  0  0  0  0  0  0  0  0  0  0  0
   38.1181  -10.7453   44.3420 H   0  0  0  0  0  0  0  0  0  0  0  0
   37.9398  -12.0754   45.3127 H   0  0  0  0  0  0  0  0  0  0  0  0
   39.2161  -12.4187   42.7881 H   0  0  0  0  0  0  0  0  0  0  0  0
   37.5705  -12.3361   42.8468 H   0  0  0  0  0  0  0  0  0  0  0  0
   38.1139  -14.5806   42.9210 H   0  0  0  0  0  0  0  0  0  0  0  0
   37.6183  -14.1220   44.4459 H   0  0  0  0  0  0  0  0  0  0  0  0
   40.3758  -14.4327   43.7394 H   0  0  0  0  0  0  0  0  0  0  0  0
   40.2605  -14.7265   46.2264 H   0  0  0  0  0  0  0  0  0  0  0  0
   38.8356  -13.8780   46.0584 H   0  0  0  0  0  0  0  0  0  0  0  0
   40.6636  -12.4998   46.7095 H   0  0  0  0  0  0  0  0  0  0  0  0
   41.3184  -12.8775   45.1830 H   0  0  0  0  0  0  0  0  0  0  0  0
   41.6416   -2.7007   46.0509 H   0  0  0  0  0  0  0  0  0  0  0  0
   42.8656   -0.6964   45.7512 H   0  0  0  0  0  0  0  0  0  0  0  0
   43.8393   -4.5204   43.0693 H   0  0  0  0  0  0  0  0  0  0  0  0
   46.1343   -1.4606   38.9379 H   0  0  0  0  0  0  0  0  0  0  0  0
   47.8003   -1.8654   37.3015 H   0  0  0  0  0  0  0  0  0  0  0  0
   50.1676   -3.6961   40.1260 H   0  0  0  0  0  0  0  0  0  0  0  0
   48.4925   -3.3623   41.7563 H   0  0  0  0  0  0  0  0  0  0  0  0
   49.7311   -3.2947   36.6530 H   0  0  0  0  0  0  0  0  0  0  0  0
   50.7472   -3.8349   37.8746 H   0  0  0  0  0  0  0  0  0  0  0  0
   51.6393   -1.8305   38.0298 H   0  0  0  0  0  0  0  0  0  0  0  0
   50.7034   -1.1607   37.1801 H   0  0  0  0  0  0  0  0  0  0  0  0
   51.5871   -2.3738   35.3058 H   0  0  0  0  0  0  0  0  0  0  0  0
   52.7634   -2.8320   36.4122 H   0  0  0  0  0  0  0  0  0  0  0  0
   52.4091    0.1398   37.4419 H   0  0  0  0  0  0  0  0  0  0  0  0
   53.6534    2.0911   36.9270 H   0  0  0  0  0  0  0  0  0  0  0  0
   55.0155    0.3061   33.4785 H   0  0  0  0  0  0  0  0  0  0  0  0
   53.7614   -1.6411   33.9908 H   0  0  0  0  0  0  0  0  0  0  0  0
   39.8167   -4.0023   42.8673 H   0  0  0  0  0  0  0  0  0  0  0  0
   40.7229   -5.0898   41.9863 H   0  0  0  0  0  0  0  0  0  0  0  0
  1  2  1  0  0  0  0
  1 49  1  0  0  0  0
  1 50  1  0  0  0  0
  1 51  1  0  0  0  0
  2  3  2  0  0  0  0
  2  4  2  0  0  0  0
  2  5  1  0  0  0  0
  5  6  1  0  0  0  0
  5 48  1  0  0  0  0
  6  7  1  0  0  0  0
  6 52  1  0  0  0  0
  6 53  1  0  0  0  0
  7  8  1  0  0  0  0
  7 54  1  0  0  0  0
  7 55  1  0  0  0  0
  8  9  2  0  0  0  0
  8 12  1  0  0  0  0
  9 10  1  0  0  0  0
  9 48  1  0  0  0  0
 10 11  2  0  0  0  0
 10 23  1  0  0  0  0
 11 12  1  0  0  0  0
 12 13  1  0  0  0  0
 13 14  1  0  0  0  0
 13 56  1  0  0  0  0
 13 57  1  0  0  0  0
 14 15  1  0  0  0  0
 14 58  1  0  0  0  0
 14 59  1  0  0  0  0
 15 16  1  0  0  0  0
 15 60  1  0  0  0  0
 15 61  1  0  0  0  0
 16 17  1  0  0  0  0
 16 22  1  0  0  0  0
 16 62  1  6  0  0  0
 17 18  1  0  0  0  0
 17 63  1  0  0  0  0
 17 64  1  0  0  0  0
 18 19  1  0  0  0  0
 18 65  1  0  0  0  0
 18 66  1  0  0  0  0
 19 20  1  0  0  0  0
 19 67  1  0  0  0  0
 19 68  1  0  0  0  0
 20 21  1  0  0  0  0
 20 69  1  0  0  0  0
 21 22  1  0  0  0  0
 21 70  1  0  0  0  0
 21 71  1  0  0  0  0
 22 72  1  0  0  0  0
 22 73  1  0  0  0  0
 23 24  2  0  0  0  0
 23 28  1  0  0  0  0
 24 25  1  0  0  0  0
 24 74  1  0  0  0  0
 25 26  2  0  0  0  0
 25 75  1  0  0  0  0
 26 27  1  0  0  0  0
 26 47  1  0  0  0  0
 27 28  2  0  0  0  0
 27 29  1  0  0  0  0
 28 76  1  0  0  0  0
 29 30  3  0  0  0  0
 30 31  1  0  0  0  0
 31 32  2  0  0  0  0
 31 36  1  0  0  0  0
 32 33  1  0  0  0  0
 32 77  1  0  0  0  0
 33 34  2  0  0  0  0
 33 78  1  0  0  0  0
 34 35  1  0  0  0  0
 34 37  1  0  0  0  0
 35 36  2  0  0  0  0
 35 79  1  0  0  0  0
 36 80  1  0  0  0  0
 37 38  1  0  0  0  0
 37 81  1  0  0  0  0
 37 82  1  0  0  0  0
 38 39  1  0  0  0  0
 38 83  1  0  0  0  0
 38 84  1  0  0  0  0
 39 40  1  0  0  0  0
 39 85  1  0  0  0  0
 39 86  1  0  0  0  0
 40 41  2  0  0  0  0
 40 45  1  0  0  0  0
 41 42  1  0  0  0  0
 41 87  1  0  0  0  0
 42 43  2  0  0  0  0
 42 88  1  0  0  0  0
 43 44  1  0  0  0  0
 43 46  1  0  0  0  0
 44 45  2  0  0  0  0
 44 89  1  0  0  0  0
 45 90  1  0  0  0  0
 48 91  1  0  0  0  0
 48 92  1  0  0  0  0
M  CHG  2  16   1  38   1
M  END
