CatS_254:1_D
 OpenBabel12041818463D

 96100  0  0  1  0  0  0  0  0999 V2000
   44.0145   -0.2804   53.1380 C   0  0  0  0  0  0  0  0  0  0  0  0
   42.6228    0.3458   52.9266 C   0  0  0  0  0  0  0  0  0  0  0  0
   42.6936    1.8006   53.4310 C   0  0  0  0  0  0  0  0  0  0  0  0
   42.1813    0.2225   51.4398 C   0  0  2  0  0  0  0  0  0  0  0  0
   41.5800    1.5055   50.8219 C   0  0  0  0  0  0  0  0  0  0  0  0
   41.4214    1.3101   49.3013 C   0  0  0  0  0  0  0  0  0  0  0  0
   40.5679    0.1115   48.9626 N   0  3  2  0  0  0  0  0  0  0  0  0
   41.0044   -1.1460   49.6801 C   0  0  0  0  0  0  0  0  0  0  0  0
   41.1771   -0.9240   51.1952 C   0  0  0  0  0  0  0  0  0  0  0  0
   40.4855   -0.0619   47.4685 C   0  0  0  0  0  0  0  0  0  0  0  0
   41.7493    0.3399   46.6857 C   0  0  0  0  0  0  0  0  0  0  0  0
   42.9772   -0.9510   47.0130 S   0  0  0  0  0  0  0  0  0  0  0  0
   43.2593   -1.9718   45.5565 C   0  0  0  0  0  0  0  0  0  0  0  0
   42.3188   -2.9290   45.2438 C   0  0  0  0  0  0  0  0  0  0  0  0
   42.4960   -3.7743   44.1634 C   0  0  0  0  0  0  0  0  0  0  0  0
   43.6432   -3.6369   43.4024 C   0  0  0  0  0  0  0  0  0  0  0  0
   44.5704   -2.6678   43.7068 C   0  0  0  0  0  0  0  0  0  0  0  0
   44.4021   -1.8181   44.7820 C   0  0  0  0  0  0  0  0  0  0  0  0
   45.4962   -0.7757   45.0345 C   0  0  0  0  0  0  0  0  0  0  0  0
   46.5684   -0.8633   44.1504 F   0  0  0  0  0  0  0  0  0  0  0  0
   46.0257   -0.9025   46.3153 F   0  0  0  0  0  0  0  0  0  0  0  0
   44.9963    0.5188   44.9210 F   0  0  0  0  0  0  0  0  0  0  0  0
   41.5060   -4.7910   43.8473 C   0  0  0  0  0  0  0  0  0  0  0  0
   41.2845   -6.0332   44.4987 C   0  0  0  0  0  0  0  0  0  0  0  0
   40.2698   -6.5562   43.8076 C   0  0  0  0  0  0  0  0  0  0  0  0
   39.8458   -5.7617   42.7962 N   0  0  0  0  0  0  0  0  0  0  0  0
   40.6359   -4.6657   42.8628 N   0  0  0  0  0  0  0  0  0  0  0  0
   38.7013   -5.9478   41.8937 C   0  0  0  0  0  0  0  0  0  0  0  0
   37.5894   -4.8888   41.7910 C   0  0  2  0  0  0  0  0  0  0  0  0
   37.2290   -4.5903   40.3153 C   0  0  0  0  0  0  0  0  0  0  0  0
   35.9071   -5.1652   39.8551 N   0  3  0  0  0  0  0  0  0  0  0  0
   35.7931   -5.2653   38.3514 C   0  0  0  0  0  0  0  0  0  0  0  0
   36.7184   -6.3689   37.8012 C   0  0  0  0  0  0  0  0  0  0  0  0
   36.3454   -7.7183   38.4414 C   0  0  0  0  0  0  0  0  0  0  0  0
   36.4750   -7.6225   39.9739 C   0  0  0  0  0  0  0  0  0  0  0  0
   35.5880   -6.4833   40.5208 C   0  0  0  0  0  0  0  0  0  0  0  0
   37.9794   -3.6777   42.4555 O   0  0  0  0  0  0  0  0  0  0  0  0
   39.6629   -7.8997   44.1511 C   0  0  0  0  0  0  0  0  0  0  0  0
   40.0474   -8.3164   45.5861 C   0  0  0  0  0  0  0  0  0  0  0  0
   41.4924   -8.1689   45.8701 N   0  0  0  0  0  0  0  0  0  0  0  0
   41.8834   -6.7410   45.7178 C   0  0  0  0  0  0  0  0  0  0  0  0
   41.9558   -9.0314   47.1840 S   0  0  0  0  0  0  0  0  0  0  0  0
   43.3860   -9.0018   47.2361 O   0  0  0  0  0  0  0  0  0  0  0  0
   41.4559  -10.3678   47.0667 O   0  0  0  0  0  0  0  0  0  0  0  0
   41.3085   -8.3037   48.7157 C   0  0  0  0  0  0  0  0  0  0  0  0
   41.7044   -0.3788   53.7601 O   0  0  0  0  0  0  0  0  0  0  0  0
   36.7780   -5.2602   42.2424 H   0  0  0  0  0  0  0  0  0  0  0  0
   43.9379   -1.0294   53.7962 H   0  0  0  0  0  0  0  0  0  0  0  0
   44.3630   -0.6307   52.2684 H   0  0  0  0  0  0  0  0  0  0  0  0
   44.6460    0.4121   53.4864 H   0  0  0  0  0  0  0  0  0  0  0  0
   42.0859    1.9020   54.2187 H   0  0  0  0  0  0  0  0  0  0  0  0
   43.6317    2.0200   53.6988 H   0  0  0  0  0  0  0  0  0  0  0  0
   42.4090    2.4238   52.7025 H   0  0  0  0  0  0  0  0  0  0  0  0
   43.0500    0.0312   50.9828 H   0  0  0  0  0  0  0  0  0  0  0  0
   42.1863    2.2804   51.0006 H   0  0  0  0  0  0  0  0  0  0  0  0
   40.6858    1.6878   51.2309 H   0  0  0  0  0  0  0  0  0  0  0  0
   42.3271    1.1880   48.8954 H   0  0  0  0  0  0  0  0  0  0  0  0
   40.9657    2.1214   48.9351 H   0  0  0  0  0  0  0  0  0  0  0  0
   39.7266    0.3027   49.2549 H   0  0  0  0  0  0  0  0  0  0  0  0
   41.8756   -1.4514   49.2958 H   0  0  0  0  0  0  0  0  0  0  0  0
   40.2907   -1.8346   49.5522 H   0  0  0  0  0  0  0  0  0  0  0  0
   40.2947   -0.6879   51.6022 H   0  0  0  0  0  0  0  0  0  0  0  0
   41.5227   -1.7631   51.6152 H   0  0  0  0  0  0  0  0  0  0  0  0
   39.7233    0.4922   47.1340 H   0  0  0  0  0  0  0  0  0  0  0  0
   40.3662   -1.0423   47.3115 H   0  0  0  0  0  0  0  0  0  0  0  0
   42.0848    1.2286   46.9983 H   0  0  0  0  0  0  0  0  0  0  0  0
   41.5610    0.4229   45.7071 H   0  0  0  0  0  0  0  0  0  0  0  0
   41.4963   -3.0137   45.8059 H   0  0  0  0  0  0  0  0  0  0  0  0
   43.7994   -4.2466   42.6254 H   0  0  0  0  0  0  0  0  0  0  0  0
   45.3862   -2.5764   43.1357 H   0  0  0  0  0  0  0  0  0  0  0  0
   38.2588   -6.8018   42.1671 H   0  0  0  0  0  0  0  0  0  0  0  0
   39.1266   -5.9047   40.9897 H   0  0  0  0  0  0  0  0  0  0  0  0
   37.9525   -4.9646   39.7353 H   0  0  0  0  0  0  0  0  0  0  0  0
   37.1422   -3.5967   40.2430 H   0  0  0  0  0  0  0  0  0  0  0  0
   35.2628   -4.5814   40.1280 H   0  0  0  0  0  0  0  0  0  0  0  0
   36.0470   -4.3883   37.9434 H   0  0  0  0  0  0  0  0  0  0  0  0
   34.8488   -5.4962   38.1176 H   0  0  0  0  0  0  0  0  0  0  0  0
   37.6694   -6.1467   38.0165 H   0  0  0  0  0  0  0  0  0  0  0  0
   36.6095   -6.4309   36.8091 H   0  0  0  0  0  0  0  0  0  0  0  0
   36.9571   -8.4309   38.0979 H   0  0  0  0  0  0  0  0  0  0  0  0
   35.4009   -7.9460   38.2047 H   0  0  0  0  0  0  0  0  0  0  0  0
   37.4292   -7.4447   40.2146 H   0  0  0  0  0  0  0  0  0  0  0  0
   36.1757   -8.4866   40.3785 H   0  0  0  0  0  0  0  0  0  0  0  0
   34.6276   -6.7081   40.3561 H   0  0  0  0  0  0  0  0  0  0  0  0
   35.7663   -6.3911   41.5004 H   0  0  0  0  0  0  0  0  0  0  0  0
   38.7053   -3.1995   41.9488 H   0  0  0  0  0  0  0  0  0  0  0  0
   39.9957   -8.5874   43.5058 H   0  0  0  0  0  0  0  0  0  0  0  0
   38.6671   -7.8287   44.0925 H   0  0  0  0  0  0  0  0  0  0  0  0
   39.7911   -9.2737   45.7198 H   0  0  0  0  0  0  0  0  0  0  0  0
   39.5598   -7.7078   46.2121 H   0  0  0  0  0  0  0  0  0  0  0  0
   41.5933   -6.2479   46.5381 H   0  0  0  0  0  0  0  0  0  0  0  0
   42.8746   -6.7364   45.5849 H   0  0  0  0  0  0  0  0  0  0  0  0
   40.7306   -8.9768   49.1771 H   0  0  0  0  0  0  0  0  0  0  0  0
   42.0671   -8.0447   49.3136 H   0  0  0  0  0  0  0  0  0  0  0  0
   40.7711   -7.4883   48.5002 H   0  0  0  0  0  0  0  0  0  0  0  0
   40.7689   -0.0198   53.6771 H   0  0  0  0  0  0  0  0  0  0  0  0
  1  2  1  0  0  0  0
  1 48  1  0  0  0  0
  1 49  1  0  0  0  0
  1 50  1  0  0  0  0
  2  3  1  0  0  0  0
  2  4  1  0  0  0  0
  2 46  1  0  0  0  0
  3 51  1  0  0  0  0
  3 52  1  0  0  0  0
  3 53  1  0  0  0  0
  4  5  1  0  0  0  0
  4  9  1  0  0  0  0
  4 54  1  6  0  0  0
  5  6  1  0  0  0  0
  5 55  1  0  0  0  0
  5 56  1  0  0  0  0
  6  7  1  0  0  0  0
  6 57  1  0  0  0  0
  6 58  1  0  0  0  0
  7  8  1  0  0  0  0
  7 10  1  0  0  0  0
  7 59  1  1  0  0  0
  8  9  1  0  0  0  0
  8 60  1  0  0  0  0
  8 61  1  0  0  0  0
  9 62  1  0  0  0  0
  9 63  1  0  0  0  0
 10 11  1  0  0  0  0
 10 64  1  0  0  0  0
 10 65  1  0  0  0  0
 11 12  1  0  0  0  0
 11 66  1  0  0  0  0
 11 67  1  0  0  0  0
 12 13  1  0  0  0  0
 13 14  2  0  0  0  0
 13 18  1  0  0  0  0
 14 15  1  0  0  0  0
 14 68  1  0  0  0  0
 15 16  2  0  0  0  0
 15 23  1  0  0  0  0
 16 17  1  0  0  0  0
 16 69  1  0  0  0  0
 17 18  2  0  0  0  0
 17 70  1  0  0  0  0
 18 19  1  0  0  0  0
 19 20  1  0  0  0  0
 19 21  1  0  0  0  0
 19 22  1  0  0  0  0
 23 24  1  0  0  0  0
 23 27  2  0  0  0  0
 24 25  2  0  0  0  0
 24 41  1  0  0  0  0
 25 26  1  0  0  0  0
 25 38  1  0  0  0  0
 26 27  1  0  0  0  0
 26 28  1  0  0  0  0
 28 29  1  0  0  0  0
 28 71  1  0  0  0  0
 28 72  1  0  0  0  0
 29 30  1  0  0  0  0
 29 37  1  0  0  0  0
 29 47  1  1  0  0  0
 30 31  1  0  0  0  0
 30 73  1  0  0  0  0
 30 74  1  0  0  0  0
 31 32  1  0  0  0  0
 31 36  1  0  0  0  0
 31 75  1  0  0  0  0
 32 33  1  0  0  0  0
 32 76  1  0  0  0  0
 32 77  1  0  0  0  0
 33 34  1  0  0  0  0
 33 78  1  0  0  0  0
 33 79  1  0  0  0  0
 34 35  1  0  0  0  0
 34 80  1  0  0  0  0
 34 81  1  0  0  0  0
 35 36  1  0  0  0  0
 35 82  1  0  0  0  0
 35 83  1  0  0  0  0
 36 84  1  0  0  0  0
 36 85  1  0  0  0  0
 37 86  1  0  0  0  0
 38 39  1  0  0  0  0
 38 87  1  0  0  0  0
 38 88  1  0  0  0  0
 39 40  1  0  0  0  0
 39 89  1  0  0  0  0
 39 90  1  0  0  0  0
 40 41  1  0  0  0  0
 40 42  1  0  0  0  0
 41 91  1  0  0  0  0
 41 92  1  0  0  0  0
 42 43  2  0  0  0  0
 42 44  2  0  0  0  0
 42 45  1  0  0  0  0
 45 93  1  0  0  0  0
 45 94  1  0  0  0  0
 45 95  1  0  0  0  0
 46 96  1  0  0  0  0
M  CHG  2   7   1  31   1
M  END
