CatS_364:1_D
 OpenBabel12041818463D

 92 97  0  0  0  0  0  0  0  0999 V2000
   46.8957   -2.6881   40.4382 C   0  0  0  0  0  0  0  0  0  0  0  0
   45.7868   -1.2741   40.6865 S   0  0  0  0  0  0  0  0  0  0  0  0
   46.3929   -0.1289   40.0904 O   0  0  0  0  0  0  0  0  0  0  0  0
   44.4831   -1.6251   40.2286 O   0  0  0  0  0  0  0  0  0  0  0  0
   45.6742   -0.9717   42.2801 N   0  0  0  0  0  0  0  0  0  0  0  0
   46.8728   -0.4841   42.9958 C   0  0  0  0  0  0  0  0  0  0  0  0
   46.5226    0.0742   44.3960 C   0  0  0  0  0  0  0  0  0  0  0  0
   45.6037   -0.8705   45.1522 C   0  0  0  0  0  0  0  0  0  0  0  0
   44.9577   -1.8606   44.5334 C   0  0  0  0  0  0  0  0  0  0  0  0
   44.2473   -2.5039   45.5749 C   0  0  0  0  0  0  0  0  0  0  0  0
   44.4891   -1.8553   46.6953 N   0  0  0  0  0  0  0  0  0  0  0  0
   45.3351   -0.8199   46.4813 N   0  0  0  0  0  0  0  0  0  0  0  0
   45.7426    0.1582   47.5016 C   0  0  0  0  0  0  0  0  0  0  0  0
   45.1975    1.5843   47.3065 C   0  0  0  0  0  0  0  0  0  0  0  0
   43.7710    1.5467   46.7231 C   0  0  0  0  0  0  0  0  0  0  0  0
   42.7611    1.0320   47.7178 N   0  3  0  0  0  0  0  0  0  0  0  0
   41.5809    0.3744   47.0480 C   0  0  0  0  0  0  0  0  0  0  0  0
   40.6112   -0.1595   48.1198 C   0  0  0  0  0  0  0  0  0  0  0  0
   40.2103    0.9006   49.0084 O   0  0  0  0  0  0  0  0  0  0  0  0
   41.3266    1.4775   49.7132 C   0  0  0  0  0  0  0  0  0  0  0  0
   42.3411    2.0787   48.7206 C   0  0  0  0  0  0  0  0  0  0  0  0
   43.3889   -3.6780   45.5129 C   0  0  0  0  0  0  0  0  0  0  0  0
   43.6326   -4.7844   46.3198 C   0  0  0  0  0  0  0  0  0  0  0  0
   42.8231   -5.8965   46.2680 C   0  0  0  0  0  0  0  0  0  0  0  0
   41.7462   -5.9226   45.4201 C   0  0  0  0  0  0  0  0  0  0  0  0
   41.4738   -4.8205   44.6145 C   0  0  0  0  0  0  0  0  0  0  0  0
   42.3036   -3.7048   44.6600 C   0  0  0  0  0  0  0  0  0  0  0  0
   40.3080   -4.8885   43.7720 C   0  0  0  0  0  0  0  0  0  0  0  0
   39.3730   -4.9581   42.9927 C   0  0  0  0  0  0  0  0  0  0  0  0
   38.3263   -5.0532   42.0093 C   0  0  0  0  0  0  0  0  0  0  0  0
   37.2779   -4.1418   41.9540 C   0  0  0  0  0  0  0  0  0  0  0  0
   36.3066   -4.2871   40.9965 C   0  0  0  0  0  0  0  0  0  0  0  0
   36.3662   -5.3325   40.0978 C   0  0  0  0  0  0  0  0  0  0  0  0
   37.4026   -6.2451   40.1467 C   0  0  0  0  0  0  0  0  0  0  0  0
   38.3794   -6.1014   41.0976 C   0  0  0  0  0  0  0  0  0  0  0  0
   37.4812   -7.4131   39.1740 C   0  0  0  0  0  0  0  0  0  0  0  0
   38.6630   -7.2994   38.2417 N   0  3  0  0  0  0  0  0  0  0  0  0
   39.9256   -7.9921   38.6894 C   0  0  0  0  0  0  0  0  0  0  0  0
   40.9260   -8.2600   37.5383 C   0  0  0  0  0  0  0  0  0  0  0  0
   42.0720   -7.2294   37.6156 C   0  0  0  0  0  0  0  0  0  0  0  0
   43.1116   -7.5267   36.5189 C   0  0  0  0  0  0  0  0  0  0  0  0
   43.6317   -8.8616   36.6640 O   0  0  0  0  0  0  0  0  0  0  0  0
   42.6062   -9.8633   36.5282 C   0  0  0  0  0  0  0  0  0  0  0  0
   41.5073   -9.6913   37.5954 C   0  0  0  0  0  0  0  0  0  0  0  0
   40.7256   -7.3316   45.3616 Cl  0  0  0  0  0  0  0  0  0  0  0  0
   45.0884   -2.1025   43.0353 C   0  0  0  0  0  0  0  0  0  0  0  0
   47.2218   -3.0063   41.3283 H   0  0  0  0  0  0  0  0  0  0  0  0
   46.4039   -3.4260   39.9761 H   0  0  0  0  0  0  0  0  0  0  0  0
   47.6729   -2.4112   39.8730 H   0  0  0  0  0  0  0  0  0  0  0  0
   47.3021    0.2391   42.4548 H   0  0  0  0  0  0  0  0  0  0  0  0
   47.4953   -1.2570   43.1190 H   0  0  0  0  0  0  0  0  0  0  0  0
   46.0694    0.9595   44.2913 H   0  0  0  0  0  0  0  0  0  0  0  0
   47.3700    0.1734   44.9174 H   0  0  0  0  0  0  0  0  0  0  0  0
   46.7416    0.2051   47.5038 H   0  0  0  0  0  0  0  0  0  0  0  0
   45.3551   -0.1670   48.3641 H   0  0  0  0  0  0  0  0  0  0  0  0
   45.7974    2.0841   46.6817 H   0  0  0  0  0  0  0  0  0  0  0  0
   45.1684    2.0417   48.1952 H   0  0  0  0  0  0  0  0  0  0  0  0
   43.7661    0.9525   45.9189 H   0  0  0  0  0  0  0  0  0  0  0  0
   43.5134    2.4827   46.4831 H   0  0  0  0  0  0  0  0  0  0  0  0
   43.1770    0.3711   48.1891 H   0  0  0  0  0  0  0  0  0  0  0  0
   41.8992   -0.3821   46.4767 H   0  0  0  0  0  0  0  0  0  0  0  0
   41.1070    1.0446   46.4767 H   0  0  0  0  0  0  0  0  0  0  0  0
   41.0634   -0.8800   48.6454 H   0  0  0  0  0  0  0  0  0  0  0  0
   39.7983   -0.5260   47.6672 H   0  0  0  0  0  0  0  0  0  0  0  0
   41.7757    0.7687   50.2572 H   0  0  0  0  0  0  0  0  0  0  0  0
   40.9901    2.2059   50.3097 H   0  0  0  0  0  0  0  0  0  0  0  0
   41.9225    2.8501   48.2413 H   0  0  0  0  0  0  0  0  0  0  0  0
   43.1456    2.3933   49.2243 H   0  0  0  0  0  0  0  0  0  0  0  0
   44.4099   -4.7717   46.9489 H   0  0  0  0  0  0  0  0  0  0  0  0
   43.0207   -6.6859   46.8491 H   0  0  0  0  0  0  0  0  0  0  0  0
   42.1131   -2.9185   44.0721 H   0  0  0  0  0  0  0  0  0  0  0  0
   37.2323   -3.3861   42.6073 H   0  0  0  0  0  0  0  0  0  0  0  0
   35.5520   -3.6326   40.9495 H   0  0  0  0  0  0  0  0  0  0  0  0
   35.6526   -5.4306   39.4043 H   0  0  0  0  0  0  0  0  0  0  0  0
   39.1353   -6.7550   41.1358 H   0  0  0  0  0  0  0  0  0  0  0  0
   36.6414   -7.4396   38.6318 H   0  0  0  0  0  0  0  0  0  0  0  0
   37.5928   -8.2507   39.7085 H   0  0  0  0  0  0  0  0  0  0  0  0
   38.8384   -6.4134   38.1163 H   0  0  0  0  0  0  0  0  0  0  0  0
   38.4452   -7.5795   37.4038 H   0  0  0  0  0  0  0  0  0  0  0  0
   39.6776   -8.8666   39.1062 H   0  0  0  0  0  0  0  0  0  0  0  0
   40.3817   -7.3813   39.3367 H   0  0  0  0  0  0  0  0  0  0  0  0
   40.4334   -8.1714   36.6726 H   0  0  0  0  0  0  0  0  0  0  0  0
   42.5083   -7.2818   38.5139 H   0  0  0  0  0  0  0  0  0  0  0  0
   41.7012   -6.3108   37.4787 H   0  0  0  0  0  0  0  0  0  0  0  0
   43.8620   -6.8693   36.5881 H   0  0  0  0  0  0  0  0  0  0  0  0
   42.6693   -7.4491   35.6254 H   0  0  0  0  0  0  0  0  0  0  0  0
   43.0190  -10.7689   36.6256 H   0  0  0  0  0  0  0  0  0  0  0  0
   42.1859   -9.7629   35.6264 H   0  0  0  0  0  0  0  0  0  0  0  0
   40.7761  -10.3531   37.4297 H   0  0  0  0  0  0  0  0  0  0  0  0
   41.9056   -9.8455   38.4996 H   0  0  0  0  0  0  0  0  0  0  0  0
   45.6666   -2.9062   42.8953 H   0  0  0  0  0  0  0  0  0  0  0  0
   44.1595   -2.2266   42.6863 H   0  0  0  0  0  0  0  0  0  0  0  0
  1  2  1  0  0  0  0
  1 47  1  0  0  0  0
  1 48  1  0  0  0  0
  1 49  1  0  0  0  0
  2  3  2  0  0  0  0
  2  4  2  0  0  0  0
  2  5  1  0  0  0  0
  5  6  1  0  0  0  0
  5 46  1  0  0  0  0
  6  7  1  0  0  0  0
  6 50  1  0  0  0  0
  6 51  1  0  0  0  0
  7  8  1  0  0  0  0
  7 52  1  0  0  0  0
  7 53  1  0  0  0  0
  8  9  2  0  0  0  0
  8 12  1  0  0  0  0
  9 10  1  0  0  0  0
  9 46  1  0  0  0  0
 10 11  2  0  0  0  0
 10 22  1  0  0  0  0
 11 12  1  0  0  0  0
 12 13  1  0  0  0  0
 13 14  1  0  0  0  0
 13 54  1  0  0  0  0
 13 55  1  0  0  0  0
 14 15  1  0  0  0  0
 14 56  1  0  0  0  0
 14 57  1  0  0  0  0
 15 16  1  0  0  0  0
 15 58  1  0  0  0  0
 15 59  1  0  0  0  0
 16 17  1  0  0  0  0
 16 21  1  0  0  0  0
 16 60  1  0  0  0  0
 17 18  1  0  0  0  0
 17 61  1  0  0  0  0
 17 62  1  0  0  0  0
 18 19  1  0  0  0  0
 18 63  1  0  0  0  0
 18 64  1  0  0  0  0
 19 20  1  0  0  0  0
 20 21  1  0  0  0  0
 20 65  1  0  0  0  0
 20 66  1  0  0  0  0
 21 67  1  0  0  0  0
 21 68  1  0  0  0  0
 22 23  2  0  0  0  0
 22 27  1  0  0  0  0
 23 24  1  0  0  0  0
 23 69  1  0  0  0  0
 24 25  2  0  0  0  0
 24 70  1  0  0  0  0
 25 26  1  0  0  0  0
 25 45  1  0  0  0  0
 26 27  2  0  0  0  0
 26 28  1  0  0  0  0
 27 71  1  0  0  0  0
 28 29  3  0  0  0  0
 29 30  1  0  0  0  0
 30 31  2  0  0  0  0
 30 35  1  0  0  0  0
 31 32  1  0  0  0  0
 31 72  1  0  0  0  0
 32 33  2  0  0  0  0
 32 73  1  0  0  0  0
 33 34  1  0  0  0  0
 33 74  1  0  0  0  0
 34 35  2  0  0  0  0
 34 36  1  0  0  0  0
 35 75  1  0  0  0  0
 36 37  1  0  0  0  0
 36 76  1  0  0  0  0
 36 77  1  0  0  0  0
 37 38  1  0  0  0  0
 37 78  1  0  0  0  0
 37 79  1  0  0  0  0
 38 39  1  0  0  0  0
 38 80  1  0  0  0  0
 38 81  1  0  0  0  0
 39 40  1  0  0  0  0
 39 44  1  0  0  0  0
 39 82  1  0  0  0  0
 40 41  1  0  0  0  0
 40 83  1  0  0  0  0
 40 84  1  0  0  0  0
 41 42  1  0  0  0  0
 41 85  1  0  0  0  0
 41 86  1  0  0  0  0
 42 43  1  0  0  0  0
 43 44  1  0  0  0  0
 43 87  1  0  0  0  0
 43 88  1  0  0  0  0
 44 89  1  0  0  0  0
 44 90  1  0  0  0  0
 46 91  1  0  0  0  0
 46 92  1  0  0  0  0
M  CHG  2  16   1  37   1
M  END
