CatS_159:1_D
 OpenBabel12041818463D

 98102  0  0  1  0  0  0  0  0999 V2000
   36.1977   -7.5165   38.3855 C   0  0  0  0  0  0  0  0  0  0  0  0
   36.4411   -6.1548   39.0623 C   0  0  0  0  0  0  0  0  0  0  0  0
   35.0995   -5.6865   39.6670 C   0  0  0  0  0  0  0  0  0  0  0  0
   36.8143   -5.1458   37.9525 C   0  0  0  0  0  0  0  0  0  0  0  0
   37.5502   -6.1972   40.1609 C   0  0  2  0  0  0  0  0  0  0  0  0
   37.6576   -7.5385   40.9222 C   0  0  0  0  0  0  0  0  0  0  0  0
   38.9711   -7.5644   41.7248 C   0  0  0  0  0  0  0  0  0  0  0  0
   39.1509   -6.3900   42.6608 N   0  3  2  0  0  0  0  0  0  0  0  0
   38.7895   -5.0562   42.0435 C   0  0  0  0  0  0  0  0  0  0  0  0
   37.4717   -5.0885   41.2397 C   0  0  0  0  0  0  0  0  0  0  0  0
   40.5575   -6.3968   43.1992 C   0  0  0  0  0  0  0  0  0  0  0  0
   40.8261   -6.9061   44.6308 C   0  0  1  0  0  0  0  0  0  0  0  0
   39.6265   -7.7604   45.1204 C   0  0  0  0  0  0  0  0  0  0  0  0
   39.9663   -8.9840   45.8689 N   0  0  0  0  0  0  0  0  0  0  0  0
   39.7750  -10.2987   45.5848 C   0  0  0  0  0  0  0  0  0  0  0  0
   40.2737  -11.1092   46.5212 C   0  0  0  0  0  0  0  0  0  0  0  0
   40.8247  -10.2221   47.4712 C   0  0  0  0  0  0  0  0  0  0  0  0
   40.5889   -8.9950   47.0689 N   0  0  0  0  0  0  0  0  0  0  0  0
   41.5669  -10.4957   48.6864 C   0  0  0  0  0  0  0  0  0  0  0  0
   42.9216  -10.7567   48.5979 C   0  0  0  0  0  0  0  0  0  0  0  0
   43.6629  -10.9824   49.7313 C   0  0  0  0  0  0  0  0  0  0  0  0
   43.0790  -10.9888   50.9809 C   0  0  0  0  0  0  0  0  0  0  0  0
   41.7189  -10.7232   51.0671 C   0  0  0  0  0  0  0  0  0  0  0  0
   40.9726  -10.4730   49.9354 C   0  0  0  0  0  0  0  0  0  0  0  0
   40.8740  -10.6900   52.6556 S   0  0  0  0  0  0  0  0  0  0  0  0
   39.2255  -10.0310   52.2830 C   0  0  0  0  0  0  0  0  0  0  0  0
   38.1125  -11.0872   52.0958 C   0  0  0  0  0  0  0  0  0  0  0  0
   36.6771  -10.6176   52.1843 N   0  3  2  0  0  0  0  0  0  0  0  0
   36.2417  -10.2134   53.5737 C   0  0  0  0  0  0  0  0  0  0  0  0
   36.0289  -11.4465   54.4750 C   0  0  0  0  0  0  0  0  0  0  0  0
   34.9762  -12.3776   53.8479 C   0  0  0  0  0  0  0  0  0  0  0  0
   35.4477  -12.8397   52.4566 C   0  0  0  0  0  0  0  0  0  0  0  0
   35.7467  -11.6264   51.5498 C   0  0  0  0  0  0  0  0  0  0  0  0
   36.5979  -13.6094   52.5936 F   0  0  0  0  0  0  0  0  0  0  0  0
   34.4812  -13.6530   51.8748 F   0  0  0  0  0  0  0  0  0  0  0  0
   44.0000  -11.3095   52.1576 C   0  0  0  0  0  0  0  0  0  0  0  0
   45.2939  -11.6407   51.7652 F   0  0  0  0  0  0  0  0  0  0  0  0
   44.1101  -10.2477   53.0478 F   0  0  0  0  0  0  0  0  0  0  0  0
   43.5098  -12.3974   52.8707 F   0  0  0  0  0  0  0  0  0  0  0  0
   40.1559  -12.6255   46.4569 C   0  0  0  0  0  0  0  0  0  0  0  0
   39.7970  -13.1601   45.1213 N   0  0  0  0  0  0  0  0  0  0  0  0
   38.6949  -12.3451   44.5604 C   0  0  0  0  0  0  0  0  0  0  0  0
   39.0761  -10.8572   44.3591 C   0  0  0  0  0  0  0  0  0  0  0  0
   39.5916  -14.7809   45.1200 S   0  0  0  0  0  0  0  0  0  0  0  0
   39.2697  -15.1400   43.7785 O   0  0  0  0  0  0  0  0  0  0  0  0
   40.7650  -15.3526   45.6957 O   0  0  0  0  0  0  0  0  0  0  0  0
   38.1755  -15.2441   46.1558 C   0  0  0  0  0  0  0  0  0  0  0  0
   42.0295   -7.6823   44.6923 O   0  0  0  0  0  0  0  0  0  0  0  0
   40.9384   -6.1101   45.2256 H   0  0  0  0  0  0  0  0  0  0  0  0
   36.8132   -8.1945   38.7874 H   0  0  0  0  0  0  0  0  0  0  0  0
   35.2485   -7.7986   38.5255 H   0  0  0  0  0  0  0  0  0  0  0  0
   36.3732   -7.4409   37.4039 H   0  0  0  0  0  0  0  0  0  0  0  0
   35.2268   -5.5082   40.6427 H   0  0  0  0  0  0  0  0  0  0  0  0
   34.7956   -4.8512   39.2089 H   0  0  0  0  0  0  0  0  0  0  0  0
   34.4072   -6.3971   39.5411 H   0  0  0  0  0  0  0  0  0  0  0  0
   37.6958   -4.7291   38.1745 H   0  0  0  0  0  0  0  0  0  0  0  0
   36.8771   -5.6184   37.0734 H   0  0  0  0  0  0  0  0  0  0  0  0
   36.1115   -4.4370   37.8916 H   0  0  0  0  0  0  0  0  0  0  0  0
   38.3599   -6.0512   39.5926 H   0  0  0  0  0  0  0  0  0  0  0  0
   37.6467   -8.2963   40.2698 H   0  0  0  0  0  0  0  0  0  0  0  0
   36.8826   -7.6318   41.5473 H   0  0  0  0  0  0  0  0  0  0  0  0
   39.7345   -7.5730   41.0787 H   0  0  0  0  0  0  0  0  0  0  0  0
   38.9408   -8.3837   42.2973 H   0  0  0  0  0  0  0  0  0  0  0  0
   38.5828   -6.5282   43.3597 H   0  0  0  0  0  0  0  0  0  0  0  0
   39.5299   -4.7777   41.4317 H   0  0  0  0  0  0  0  0  0  0  0  0
   38.6592   -4.4094   42.7949 H   0  0  0  0  0  0  0  0  0  0  0  0
   36.7069   -5.2752   41.8564 H   0  0  0  0  0  0  0  0  0  0  0  0
   37.3316   -4.2029   40.7969 H   0  0  0  0  0  0  0  0  0  0  0  0
   40.8899   -5.4546   43.1570 H   0  0  0  0  0  0  0  0  0  0  0  0
   41.0234   -7.0688   42.6235 H   0  0  0  0  0  0  0  0  0  0  0  0
   39.0924   -8.0279   44.3185 H   0  0  0  0  0  0  0  0  0  0  0  0
   39.1295   -7.1808   45.7663 H   0  0  0  0  0  0  0  0  0  0  0  0
   43.3648  -10.7814   47.7018 H   0  0  0  0  0  0  0  0  0  0  0  0
   44.6461  -11.1453   49.6492 H   0  0  0  0  0  0  0  0  0  0  0  0
   39.9962  -10.2739   50.0177 H   0  0  0  0  0  0  0  0  0  0  0  0
   39.2897   -9.4951   51.4412 H   0  0  0  0  0  0  0  0  0  0  0  0
   38.9588   -9.4923   53.0822 H   0  0  0  0  0  0  0  0  0  0  0  0
   38.2436  -11.7888   52.7961 H   0  0  0  0  0  0  0  0  0  0  0  0
   38.2172  -11.4004   51.1519 H   0  0  0  0  0  0  0  0  0  0  0  0
   36.6187   -9.8611   51.6778 H   0  0  0  0  0  0  0  0  0  0  0  0
   35.3857   -9.7002   53.5120 H   0  0  0  0  0  0  0  0  0  0  0  0
   36.9613   -9.6488   53.9781 H   0  0  0  0  0  0  0  0  0  0  0  0
   35.7173  -11.1496   55.3776 H   0  0  0  0  0  0  0  0  0  0  0  0
   36.8931  -11.9416   54.5649 H   0  0  0  0  0  0  0  0  0  0  0  0
   34.1083  -11.8885   53.7611 H   0  0  0  0  0  0  0  0  0  0  0  0
   34.8529  -13.1777   54.4350 H   0  0  0  0  0  0  0  0  0  0  0  0
   36.1640  -11.9557   50.7028 H   0  0  0  0  0  0  0  0  0  0  0  0
   34.8768  -11.1619   51.3840 H   0  0  0  0  0  0  0  0  0  0  0  0
   39.4550  -12.9133   47.1095 H   0  0  0  0  0  0  0  0  0  0  0  0
   41.0620  -12.9895   46.6725 H   0  0  0  0  0  0  0  0  0  0  0  0
   37.9135  -12.3939   45.1824 H   0  0  0  0  0  0  0  0  0  0  0  0
   38.4788  -12.7191   43.6586 H   0  0  0  0  0  0  0  0  0  0  0  0
   39.6853  -10.7778   43.5701 H   0  0  0  0  0  0  0  0  0  0  0  0
   38.2371  -10.3345   44.2078 H   0  0  0  0  0  0  0  0  0  0  0  0
   38.4992  -15.8041   46.9183 H   0  0  0  0  0  0  0  0  0  0  0  0
   37.7307  -14.4205   46.5078 H   0  0  0  0  0  0  0  0  0  0  0  0
   37.5160  -15.7629   45.6118 H   0  0  0  0  0  0  0  0  0  0  0  0
   42.2551   -8.0773   43.7954 H   0  0  0  0  0  0  0  0  0  0  0  0
  1  2  1  0  0  0  0
  1 50  1  0  0  0  0
  1 51  1  0  0  0  0
  1 52  1  0  0  0  0
  2  3  1  0  0  0  0
  2  4  1  0  0  0  0
  2  5  1  0  0  0  0
  3 53  1  0  0  0  0
  3 54  1  0  0  0  0
  3 55  1  0  0  0  0
  4 56  1  0  0  0  0
  4 57  1  0  0  0  0
  4 58  1  0  0  0  0
  5  6  1  0  0  0  0
  5 10  1  0  0  0  0
  5 59  1  6  0  0  0
  6  7  1  0  0  0  0
  6 60  1  0  0  0  0
  6 61  1  0  0  0  0
  7  8  1  0  0  0  0
  7 62  1  0  0  0  0
  7 63  1  0  0  0  0
  8  9  1  0  0  0  0
  8 11  1  0  0  0  0
  8 64  1  1  0  0  0
  9 10  1  0  0  0  0
  9 65  1  0  0  0  0
  9 66  1  0  0  0  0
 10 67  1  0  0  0  0
 10 68  1  0  0  0  0
 11 12  1  0  0  0  0
 11 69  1  0  0  0  0
 11 70  1  0  0  0  0
 12 13  1  0  0  0  0
 12 48  1  0  0  0  0
 12 49  1  1  0  0  0
 13 14  1  0  0  0  0
 13 71  1  0  0  0  0
 13 72  1  0  0  0  0
 14 15  1  0  0  0  0
 14 18  1  0  0  0  0
 15 16  2  0  0  0  0
 15 43  1  0  0  0  0
 16 17  1  0  0  0  0
 16 40  1  0  0  0  0
 17 18  2  0  0  0  0
 17 19  1  0  0  0  0
 19 20  2  0  0  0  0
 19 24  1  0  0  0  0
 20 21  1  0  0  0  0
 20 73  1  0  0  0  0
 21 22  2  0  0  0  0
 21 74  1  0  0  0  0
 22 23  1  0  0  0  0
 22 36  1  0  0  0  0
 23 24  2  0  0  0  0
 23 25  1  0  0  0  0
 24 75  1  0  0  0  0
 25 26  1  0  0  0  0
 26 27  1  0  0  0  0
 26 76  1  0  0  0  0
 26 77  1  0  0  0  0
 27 28  1  0  0  0  0
 27 78  1  0  0  0  0
 27 79  1  0  0  0  0
 28 29  1  0  0  0  0
 28 33  1  0  0  0  0
 28 80  1  6  0  0  0
 29 30  1  0  0  0  0
 29 81  1  0  0  0  0
 29 82  1  0  0  0  0
 30 31  1  0  0  0  0
 30 83  1  0  0  0  0
 30 84  1  0  0  0  0
 31 32  1  0  0  0  0
 31 85  1  0  0  0  0
 31 86  1  0  0  0  0
 32 33  1  0  0  0  0
 32 34  1  0  0  0  0
 32 35  1  0  0  0  0
 33 87  1  0  0  0  0
 33 88  1  0  0  0  0
 36 37  1  0  0  0  0
 36 38  1  0  0  0  0
 36 39  1  0  0  0  0
 40 41  1  0  0  0  0
 40 89  1  0  0  0  0
 40 90  1  0  0  0  0
 41 42  1  0  0  0  0
 41 44  1  0  0  0  0
 42 43  1  0  0  0  0
 42 91  1  0  0  0  0
 42 92  1  0  0  0  0
 43 93  1  0  0  0  0
 43 94  1  0  0  0  0
 44 45  2  0  0  0  0
 44 46  2  0  0  0  0
 44 47  1  0  0  0  0
 47 95  1  0  0  0  0
 47 96  1  0  0  0  0
 47 97  1  0  0  0  0
 48 98  1  0  0  0  0
M  CHG  2   8   1  28   1
M  END
