CatS_16:1_D
 OpenBabel12041818463D

113118  0  0  0  0  0  0  0  0999 V2000
   44.0184  -12.6756   34.2382 C   0  0  0  0  0  0  0  0  0  0  0  0
   43.8246  -14.2040   34.4019 C   0  0  0  0  0  0  0  0  0  0  0  0
   44.2830  -14.8465   33.0765 C   0  0  0  0  0  0  0  0  0  0  0  0
   44.7765  -14.7856   35.4715 C   0  0  0  0  0  0  0  0  0  0  0  0
   42.4385  -14.5988   34.5979 O   0  0  0  0  0  0  0  0  0  0  0  0
   41.9845  -15.0967   35.7915 C   0  0  0  0  0  0  0  0  0  0  0  0
   41.9348  -16.3227   35.9064 O   0  0  0  0  0  0  0  0  0  0  0  0
   41.6008  -14.2678   36.7892 N   0  0  0  0  0  0  0  0  0  0  0  0
   41.3687  -12.8369   36.5312 C   0  0  1  0  0  0  0  0  0  0  0  0
   39.8886  -12.4030   36.6241 C   0  0  0  0  0  0  0  0  0  0  0  0
   39.7581  -10.8772   36.4294 C   0  0  0  0  0  0  0  0  0  0  0  0
   40.5909  -10.1357   37.4445 N   0  3  1  0  0  0  0  0  0  0  0  0
   42.0399  -10.5508   37.3861 C   0  0  0  0  0  0  0  0  0  0  0  0
   42.1930  -12.0689   37.5850 C   0  0  0  0  0  0  0  0  0  0  0  0
   40.3900   -8.6422   37.3582 C   0  0  0  0  0  0  0  0  0  0  0  0
   40.1122   -7.9615   38.7182 C   0  0  0  0  0  0  0  0  0  0  0  0
   38.3302   -7.7706   38.9935 S   0  0  0  0  0  0  0  0  0  0  0  0
   38.1088   -6.4477   40.1870 C   0  0  0  0  0  0  0  0  0  0  0  0
   39.0875   -6.3144   41.1430 C   0  0  0  0  0  0  0  0  0  0  0  0
   38.9981   -5.3355   42.1170 C   0  0  0  0  0  0  0  0  0  0  0  0
   37.8949   -4.5049   42.1158 C   0  0  0  0  0  0  0  0  0  0  0  0
   36.9201   -4.6423   41.1554 C   0  0  0  0  0  0  0  0  0  0  0  0
   37.0045   -5.6057   40.1697 C   0  0  0  0  0  0  0  0  0  0  0  0
   35.8762   -5.6480   39.1389 C   0  0  0  0  0  0  0  0  0  0  0  0
   36.2984   -5.2315   37.8815 F   0  0  0  0  0  0  0  0  0  0  0  0
   35.3283   -6.9168   38.9701 F   0  0  0  0  0  0  0  0  0  0  0  0
   34.8388   -4.8074   39.5280 F   0  0  0  0  0  0  0  0  0  0  0  0
   40.0727   -5.2550   43.0889 C   0  0  0  0  0  0  0  0  0  0  0  0
   40.3924   -6.0902   44.1829 C   0  0  0  0  0  0  0  0  0  0  0  0
   41.4672   -5.5044   44.7183 C   0  0  0  0  0  0  0  0  0  0  0  0
   41.8546   -4.3929   44.0431 N   0  0  0  0  0  0  0  0  0  0  0  0
   40.9555   -4.2780   43.0441 N   0  0  0  0  0  0  0  0  0  0  0  0
   43.0055   -3.4994   44.2322 C   0  0  0  0  0  0  0  0  0  0  0  0
   43.5449   -3.1065   42.8454 C   0  0  0  0  0  0  0  0  0  0  0  0
   44.7208   -2.1197   42.9679 C   0  0  0  0  0  0  0  0  0  0  0  0
   45.8943   -2.4854   42.0935 N   0  3  1  0  0  0  0  0  0  0  0  0
   45.7614   -1.8862   40.7173 C   0  0  0  0  0  0  0  0  0  0  0  0
   46.9090   -2.3468   39.7954 C   0  0  0  0  0  0  0  0  0  0  0  0
   48.2842   -1.9679   40.3929 C   0  0  1  0  0  0  0  0  0  0  0  0
   48.3953   -2.6069   41.7959 C   0  0  0  0  0  0  0  0  0  0  0  0
   47.2345   -2.1701   42.7131 C   0  0  0  0  0  0  0  0  0  0  0  0
   49.3727   -2.2500   39.4282 N   0  0  0  0  0  0  0  0  0  0  0  0
   49.1358   -3.0186   38.1992 C   0  0  0  0  0  0  0  0  0  0  0  0
   50.3803   -2.6404   37.3781 C   0  0  0  0  0  0  0  0  0  0  0  0
   51.4516   -2.2452   38.4059 C   0  0  0  0  0  0  0  0  0  0  0  0
   50.6298   -1.8066   39.5888 C   0  0  0  0  0  0  0  0  0  0  0  0
   51.0744   -1.1431   40.5145 O   0  0  0  0  0  0  0  0  0  0  0  0
   42.1559   -6.0630   45.9496 C   0  0  0  0  0  0  0  0  0  0  0  0
   41.6994   -7.5122   46.2358 C   0  0  0  0  0  0  0  0  0  0  0  0
   40.2334   -7.6911   46.1311 N   0  0  0  0  0  0  0  0  0  0  0  0
   39.7999   -7.3748   44.7490 C   0  0  0  0  0  0  0  0  0  0  0  0
   39.6410   -9.0715   46.7653 S   0  0  0  0  0  0  0  0  0  0  0  0
   38.2188   -9.0296   46.6571 O   0  0  0  0  0  0  0  0  0  0  0  0
   40.1985   -9.2250   48.0692 O   0  0  0  0  0  0  0  0  0  0  0  0
   40.2527  -10.4330   45.7363 C   0  0  0  0  0  0  0  0  0  0  0  0
   43.1272  -12.2261   34.2991 H   0  0  0  0  0  0  0  0  0  0  0  0
   44.6190  -12.3320   34.9601 H   0  0  0  0  0  0  0  0  0  0  0  0
   44.4341  -12.4823   33.3495 H   0  0  0  0  0  0  0  0  0  0  0  0
   43.5231  -15.3674   32.6874 H   0  0  0  0  0  0  0  0  0  0  0  0
   44.5655  -14.1332   32.4352 H   0  0  0  0  0  0  0  0  0  0  0  0
   45.0573  -15.4557   33.2476 H   0  0  0  0  0  0  0  0  0  0  0  0
   44.2457  -15.3385   36.1136 H   0  0  0  0  0  0  0  0  0  0  0  0
   45.4714  -15.3545   35.0316 H   0  0  0  0  0  0  0  0  0  0  0  0
   45.2285  -14.0400   35.9610 H   0  0  0  0  0  0  0  0  0  0  0  0
   41.5043  -14.5679   37.6042 H   0  0  0  0  0  0  0  0  0  0  0  0
   41.6413  -12.6390   35.5896 H   0  0  0  0  0  0  0  0  0  0  0  0
   39.5262  -12.6548   37.5214 H   0  0  0  0  0  0  0  0  0  0  0  0
   39.3711  -12.8646   35.9036 H   0  0  0  0  0  0  0  0  0  0  0  0
   38.7992  -10.6128   36.5320 H   0  0  0  0  0  0  0  0  0  0  0  0
   40.0850  -10.6415   35.5142 H   0  0  0  0  0  0  0  0  0  0  0  0
   40.2765  -10.3923   38.2612 H   0  0  0  0  0  0  0  0  0  0  0  0
   42.5468  -10.0728   38.1035 H   0  0  0  0  0  0  0  0  0  0  0  0
   42.4009  -10.3131   36.4843 H   0  0  0  0  0  0  0  0  0  0  0  0
   43.1572  -12.3194   37.4973 H   0  0  0  0  0  0  0  0  0  0  0  0
   41.8586  -12.3101   38.4959 H   0  0  0  0  0  0  0  0  0  0  0  0
   39.6160   -8.4630   36.7509 H   0  0  0  0  0  0  0  0  0  0  0  0
   41.2461   -8.2563   37.0144 H   0  0  0  0  0  0  0  0  0  0  0  0
   40.5463   -7.0608   38.7299 H   0  0  0  0  0  0  0  0  0  0  0  0
   40.4870   -8.5363   39.4456 H   0  0  0  0  0  0  0  0  0  0  0  0
   39.8736   -6.9325   41.1346 H   0  0  0  0  0  0  0  0  0  0  0  0
   37.8042   -3.7989   42.8181 H   0  0  0  0  0  0  0  0  0  0  0  0
   36.1304   -4.0289   41.1713 H   0  0  0  0  0  0  0  0  0  0  0  0
   43.7178   -3.9686   44.7544 H   0  0  0  0  0  0  0  0  0  0  0  0
   42.7280   -2.6820   44.7369 H   0  0  0  0  0  0  0  0  0  0  0  0
   42.8110   -2.6802   42.3165 H   0  0  0  0  0  0  0  0  0  0  0  0
   43.8712   -3.9325   42.3856 H   0  0  0  0  0  0  0  0  0  0  0  0
   45.0244   -2.1009   43.9206 H   0  0  0  0  0  0  0  0  0  0  0  0
   44.3920   -1.2254   42.6645 H   0  0  0  0  0  0  0  0  0  0  0  0
   45.8624   -3.3902   41.9852 H   0  0  0  0  0  0  0  0  0  0  0  0
   45.7789   -0.8891   40.7910 H   0  0  0  0  0  0  0  0  0  0  0  0
   44.8960   -2.1927   40.3209 H   0  0  0  0  0  0  0  0  0  0  0  0
   46.8069   -1.9115   38.9009 H   0  0  0  0  0  0  0  0  0  0  0  0
   46.8653   -3.3417   39.7043 H   0  0  0  0  0  0  0  0  0  0  0  0
   48.3800   -0.9840   40.5434 H   0  0  0  0  0  0  0  0  0  0  0  0
   49.2620   -2.3313   42.2118 H   0  0  0  0  0  0  0  0  0  0  0  0
   48.3521   -3.6004   41.6909 H   0  0  0  0  0  0  0  0  0  0  0  0
   47.3105   -2.6481   43.5883 H   0  0  0  0  0  0  0  0  0  0  0  0
   47.2949   -1.1808   42.8457 H   0  0  0  0  0  0  0  0  0  0  0  0
   48.2914   -2.7366   37.7437 H   0  0  0  0  0  0  0  0  0  0  0  0
   49.0181   -4.0013   38.3418 H   0  0  0  0  0  0  0  0  0  0  0  0
   50.1783   -1.8737   36.7687 H   0  0  0  0  0  0  0  0  0  0  0  0
   50.6857   -3.3976   36.8006 H   0  0  0  0  0  0  0  0  0  0  0  0
   52.0236   -1.4994   38.0644 H   0  0  0  0  0  0  0  0  0  0  0  0
   52.0888   -2.9857   38.6194 H   0  0  0  0  0  0  0  0  0  0  0  0
   41.9365   -5.4874   46.7373 H   0  0  0  0  0  0  0  0  0  0  0  0
   43.1423   -6.0696   45.7851 H   0  0  0  0  0  0  0  0  0  0  0  0
   41.9875   -7.7613   47.1606 H   0  0  0  0  0  0  0  0  0  0  0  0
   42.1201   -8.0992   45.5443 H   0  0  0  0  0  0  0  0  0  0  0  0
   40.0662   -8.1328   44.1537 H   0  0  0  0  0  0  0  0  0  0  0  0
   38.8095   -7.2408   44.7853 H   0  0  0  0  0  0  0  0  0  0  0  0
   40.8533  -11.0128   46.2869 H   0  0  0  0  0  0  0  0  0  0  0  0
   39.4821  -10.9726   45.3970 H   0  0  0  0  0  0  0  0  0  0  0  0
   40.7602  -10.0646   44.9572 H   0  0  0  0  0  0  0  0  0  0  0  0
  1  2  1  0  0  0  0
  1 56  1  0  0  0  0
  1 57  1  0  0  0  0
  1 58  1  0  0  0  0
  2  3  1  0  0  0  0
  2  4  1  0  0  0  0
  2  5  1  0  0  0  0
  3 59  1  0  0  0  0
  3 60  1  0  0  0  0
  3 61  1  0  0  0  0
  4 62  1  0  0  0  0
  4 63  1  0  0  0  0
  4 64  1  0  0  0  0
  5  6  1  0  0  0  0
  6  7  2  0  0  0  0
  6  8  1  0  0  0  0
  8  9  1  0  0  0  0
  8 65  1  0  0  0  0
  9 10  1  0  0  0  0
  9 14  1  0  0  0  0
  9 66  1  6  0  0  0
 10 11  1  0  0  0  0
 10 67  1  0  0  0  0
 10 68  1  0  0  0  0
 11 12  1  0  0  0  0
 11 69  1  0  0  0  0
 11 70  1  0  0  0  0
 12 13  1  0  0  0  0
 12 15  1  0  0  0  0
 12 71  1  1  0  0  0
 13 14  1  0  0  0  0
 13 72  1  0  0  0  0
 13 73  1  0  0  0  0
 14 74  1  0  0  0  0
 14 75  1  0  0  0  0
 15 16  1  0  0  0  0
 15 76  1  0  0  0  0
 15 77  1  0  0  0  0
 16 17  1  0  0  0  0
 16 78  1  0  0  0  0
 16 79  1  0  0  0  0
 17 18  1  0  0  0  0
 18 19  2  0  0  0  0
 18 23  1  0  0  0  0
 19 20  1  0  0  0  0
 19 80  1  0  0  0  0
 20 21  2  0  0  0  0
 20 28  1  0  0  0  0
 21 22  1  0  0  0  0
 21 81  1  0  0  0  0
 22 23  2  0  0  0  0
 22 82  1  0  0  0  0
 23 24  1  0  0  0  0
 24 25  1  0  0  0  0
 24 26  1  0  0  0  0
 24 27  1  0  0  0  0
 28 29  1  0  0  0  0
 28 32  2  0  0  0  0
 29 30  2  0  0  0  0
 29 51  1  0  0  0  0
 30 31  1  0  0  0  0
 30 48  1  0  0  0  0
 31 32  1  0  0  0  0
 31 33  1  0  0  0  0
 33 34  1  0  0  0  0
 33 83  1  0  0  0  0
 33 84  1  0  0  0  0
 34 35  1  0  0  0  0
 34 85  1  0  0  0  0
 34 86  1  0  0  0  0
 35 36  1  0  0  0  0
 35 87  1  0  0  0  0
 35 88  1  0  0  0  0
 36 37  1  0  0  0  0
 36 41  1  0  0  0  0
 36 89  1  6  0  0  0
 37 38  1  0  0  0  0
 37 90  1  0  0  0  0
 37 91  1  0  0  0  0
 38 39  1  0  0  0  0
 38 92  1  0  0  0  0
 38 93  1  0  0  0  0
 39 40  1  0  0  0  0
 39 42  1  0  0  0  0
 39 94  1  1  0  0  0
 40 41  1  0  0  0  0
 40 95  1  0  0  0  0
 40 96  1  0  0  0  0
 41 97  1  0  0  0  0
 41 98  1  0  0  0  0
 42 43  1  0  0  0  0
 42 46  1  0  0  0  0
 43 44  1  0  0  0  0
 43 99  1  0  0  0  0
 43100  1  0  0  0  0
 44 45  1  0  0  0  0
 44101  1  0  0  0  0
 44102  1  0  0  0  0
 45 46  1  0  0  0  0
 45103  1  0  0  0  0
 45104  1  0  0  0  0
 46 47  2  0  0  0  0
 48 49  1  0  0  0  0
 48105  1  0  0  0  0
 48106  1  0  0  0  0
 49 50  1  0  0  0  0
 49107  1  0  0  0  0
 49108  1  0  0  0  0
 50 51  1  0  0  0  0
 50 52  1  0  0  0  0
 51109  1  0  0  0  0
 51110  1  0  0  0  0
 52 53  2  0  0  0  0
 52 54  2  0  0  0  0
 52 55  1  0  0  0  0
 55111  1  0  0  0  0
 55112  1  0  0  0  0
 55113  1  0  0  0  0
M  CHG  2  12   1  36   1
M  END
