CatS_344:1_D
 OpenBabel12041818463D

 84 89  0  0  0  0  0  0  0  0999 V2000
   34.7400  -10.3452   35.7384 C   0  0  0  0  0  0  0  0  0  0  0  0
   35.2850  -10.5672   34.0226 S   0  0  0  0  0  0  0  0  0  0  0  0
   34.2478  -10.1164   33.1541 O   0  0  0  0  0  0  0  0  0  0  0  0
   36.5736   -9.9712   33.8871 O   0  0  0  0  0  0  0  0  0  0  0  0
   35.4725  -12.1571   33.7525 N   0  0  0  0  0  0  0  0  0  0  0  0
   34.2147  -12.9264   33.6578 C   0  0  0  0  0  0  0  0  0  0  0  0
   34.4612  -14.2799   32.9562 C   0  0  0  0  0  0  0  0  0  0  0  0
   35.6090  -15.0302   33.6075 C   0  0  0  0  0  0  0  0  0  0  0  0
   36.4982  -14.3832   34.3639 C   0  0  0  0  0  0  0  0  0  0  0  0
   37.3769  -15.4023   34.7961 C   0  0  0  0  0  0  0  0  0  0  0  0
   36.9772  -16.5386   34.2655 N   0  0  0  0  0  0  0  0  0  0  0  0
   35.8620  -16.3635   33.5138 N   0  0  0  0  0  0  0  0  0  0  0  0
   35.0903  -17.4696   32.9217 C   0  0  0  0  0  0  0  0  0  0  0  0
   33.5705  -17.6166   33.1670 C   0  0  0  0  0  0  0  0  0  0  0  0
   33.2056  -17.4594   34.6599 C   0  0  0  0  0  0  0  0  0  0  0  0
   31.8138  -16.9398   34.9209 N   0  3  0  0  0  0  0  0  0  0  0  0
   31.2227  -17.4466   36.2149 C   0  0  0  0  0  0  0  0  0  0  0  0
   31.8623  -16.7151   37.4113 C   0  0  0  0  0  0  0  0  0  0  0  0
   31.7208  -15.2894   37.2668 O   0  0  0  0  0  0  0  0  0  0  0  0
   32.3772  -14.7941   36.0855 C   0  0  0  0  0  0  0  0  0  0  0  0
   31.7658  -15.4343   34.8256 C   0  0  0  0  0  0  0  0  0  0  0  0
   38.5225  -15.2942   35.6869 C   0  0  0  0  0  0  0  0  0  0  0  0
   39.0177  -16.4053   36.3565 C   0  0  0  0  0  0  0  0  0  0  0  0
   40.0982  -16.2956   37.2075 C   0  0  0  0  0  0  0  0  0  0  0  0
   40.7118  -15.0808   37.4079 C   0  0  0  0  0  0  0  0  0  0  0  0
   40.2305  -13.9579   36.7395 C   0  0  0  0  0  0  0  0  0  0  0  0
   39.1406  -14.0791   35.8883 C   0  0  0  0  0  0  0  0  0  0  0  0
   40.8035  -12.6441   36.8840 C   0  0  0  0  0  0  0  0  0  0  0  0
   41.2184  -11.4996   36.9688 C   0  0  0  0  0  0  0  0  0  0  0  0
   41.6311  -10.1216   37.0289 C   0  0  0  0  0  0  0  0  0  0  0  0
   42.7638   -9.6527   36.3740 C   0  0  0  0  0  0  0  0  0  0  0  0
   43.1053   -8.3281   36.4810 C   0  0  0  0  0  0  0  0  0  0  0  0
   42.3314   -7.4644   37.2308 C   0  0  0  0  0  0  0  0  0  0  0  0
   41.1998   -7.9194   37.8820 C   0  0  0  0  0  0  0  0  0  0  0  0
   40.8584   -9.2429   37.7789 C   0  0  0  0  0  0  0  0  0  0  0  0
   40.2780   -7.0600   38.7379 C   0  0  0  0  0  0  0  0  0  0  0  0
   38.8320   -7.1426   38.4628 N   0  0  0  0  0  0  0  0  0  0  0  0
   37.9223   -6.4407   39.2659 C   0  0  0  0  0  0  0  0  0  0  0  0
   36.5643   -6.6722   39.1268 C   0  0  0  0  0  0  0  0  0  0  0  0
   35.6561   -5.9920   39.9024 C   0  0  0  0  0  0  0  0  0  0  0  0
   36.0920   -5.0715   40.8287 C   0  0  0  0  0  0  0  0  0  0  0  0
   37.4394   -4.8326   40.9779 C   0  0  0  0  0  0  0  0  0  0  0  0
   38.3493   -5.5108   40.2028 C   0  0  0  0  0  0  0  0  0  0  0  0
   42.0723  -14.9511   38.4851 Cl  0  0  0  0  0  0  0  0  0  0  0  0
   36.4188  -12.8838   34.6297 C   0  0  0  0  0  0  0  0  0  0  0  0
   34.6639  -11.2419   36.1745 H   0  0  0  0  0  0  0  0  0  0  0  0
   35.4039   -9.7850   36.2340 H   0  0  0  0  0  0  0  0  0  0  0  0
   33.8517   -9.8862   35.7528 H   0  0  0  0  0  0  0  0  0  0  0  0
   33.5434  -12.3998   33.1362 H   0  0  0  0  0  0  0  0  0  0  0  0
   33.8710  -13.0994   34.5808 H   0  0  0  0  0  0  0  0  0  0  0  0
   34.6785  -14.1162   31.9940 H   0  0  0  0  0  0  0  0  0  0  0  0
   33.6334  -14.8352   33.0365 H   0  0  0  0  0  0  0  0  0  0  0  0
   35.5138  -18.3156   33.2457 H   0  0  0  0  0  0  0  0  0  0  0  0
   35.1295  -17.2597   31.9448 H   0  0  0  0  0  0  0  0  0  0  0  0
   33.2778  -18.5201   32.8540 H   0  0  0  0  0  0  0  0  0  0  0  0
   33.1051  -16.8916   32.6592 H   0  0  0  0  0  0  0  0  0  0  0  0
   33.8592  -16.8274   35.0762 H   0  0  0  0  0  0  0  0  0  0  0  0
   33.2401  -18.3772   35.0554 H   0  0  0  0  0  0  0  0  0  0  0  0
   31.2844  -17.2537   34.2490 H   0  0  0  0  0  0  0  0  0  0  0  0
   31.3922  -18.4289   36.2954 H   0  0  0  0  0  0  0  0  0  0  0  0
   30.2379  -17.2729   36.2150 H   0  0  0  0  0  0  0  0  0  0  0  0
   32.8335  -16.9485   37.4604 H   0  0  0  0  0  0  0  0  0  0  0  0
   31.3983  -17.0010   38.2498 H   0  0  0  0  0  0  0  0  0  0  0  0
   33.3516  -15.0145   36.1308 H   0  0  0  0  0  0  0  0  0  0  0  0
   32.2548  -13.8028   36.0370 H   0  0  0  0  0  0  0  0  0  0  0  0
   30.8150  -15.1392   34.7319 H   0  0  0  0  0  0  0  0  0  0  0  0
   32.2945  -15.1440   34.0279 H   0  0  0  0  0  0  0  0  0  0  0  0
   38.5855  -17.2967   36.2202 H   0  0  0  0  0  0  0  0  0  0  0  0
   40.4384  -17.1068   37.6830 H   0  0  0  0  0  0  0  0  0  0  0  0
   38.7976  -13.2693   35.4122 H   0  0  0  0  0  0  0  0  0  0  0  0
   43.3253  -10.2756   35.8290 H   0  0  0  0  0  0  0  0  0  0  0  0
   43.9200   -7.9859   36.0130 H   0  0  0  0  0  0  0  0  0  0  0  0
   42.5918   -6.5016   37.3034 H   0  0  0  0  0  0  0  0  0  0  0  0
   40.0430   -9.5805   38.2493 H   0  0  0  0  0  0  0  0  0  0  0  0
   40.5556   -6.1068   38.6176 H   0  0  0  0  0  0  0  0  0  0  0  0
   40.3829   -7.4158   39.6666 H   0  0  0  0  0  0  0  0  0  0  0  0
   38.5370   -7.8759   38.0744 H   0  0  0  0  0  0  0  0  0  0  0  0
   36.2415   -7.3401   38.4562 H   0  0  0  0  0  0  0  0  0  0  0  0
   34.6774   -6.1661   39.7937 H   0  0  0  0  0  0  0  0  0  0  0  0
   35.4304   -4.5769   41.3924 H   0  0  0  0  0  0  0  0  0  0  0  0
   37.7566   -4.1646   41.6512 H   0  0  0  0  0  0  0  0  0  0  0  0
   39.3268   -5.3327   40.3151 H   0  0  0  0  0  0  0  0  0  0  0  0
   36.1361  -12.7463   35.5790 H   0  0  0  0  0  0  0  0  0  0  0  0
   37.3275  -12.5126   34.4389 H   0  0  0  0  0  0  0  0  0  0  0  0
  1  2  1  0  0  0  0
  1 46  1  0  0  0  0
  1 47  1  0  0  0  0
  1 48  1  0  0  0  0
  2  3  2  0  0  0  0
  2  4  2  0  0  0  0
  2  5  1  0  0  0  0
  5  6  1  0  0  0  0
  5 45  1  0  0  0  0
  6  7  1  0  0  0  0
  6 49  1  0  0  0  0
  6 50  1  0  0  0  0
  7  8  1  0  0  0  0
  7 51  1  0  0  0  0
  7 52  1  0  0  0  0
  8  9  2  0  0  0  0
  8 12  1  0  0  0  0
  9 10  1  0  0  0  0
  9 45  1  0  0  0  0
 10 11  2  0  0  0  0
 10 22  1  0  0  0  0
 11 12  1  0  0  0  0
 12 13  1  0  0  0  0
 13 14  1  0  0  0  0
 13 53  1  0  0  0  0
 13 54  1  0  0  0  0
 14 15  1  0  0  0  0
 14 55  1  0  0  0  0
 14 56  1  0  0  0  0
 15 16  1  0  0  0  0
 15 57  1  0  0  0  0
 15 58  1  0  0  0  0
 16 17  1  0  0  0  0
 16 21  1  0  0  0  0
 16 59  1  0  0  0  0
 17 18  1  0  0  0  0
 17 60  1  0  0  0  0
 17 61  1  0  0  0  0
 18 19  1  0  0  0  0
 18 62  1  0  0  0  0
 18 63  1  0  0  0  0
 19 20  1  0  0  0  0
 20 21  1  0  0  0  0
 20 64  1  0  0  0  0
 20 65  1  0  0  0  0
 21 66  1  0  0  0  0
 21 67  1  0  0  0  0
 22 23  2  0  0  0  0
 22 27  1  0  0  0  0
 23 24  1  0  0  0  0
 23 68  1  0  0  0  0
 24 25  2  0  0  0  0
 24 69  1  0  0  0  0
 25 26  1  0  0  0  0
 25 44  1  0  0  0  0
 26 27  2  0  0  0  0
 26 28  1  0  0  0  0
 27 70  1  0  0  0  0
 28 29  3  0  0  0  0
 29 30  1  0  0  0  0
 30 31  2  0  0  0  0
 30 35  1  0  0  0  0
 31 32  1  0  0  0  0
 31 71  1  0  0  0  0
 32 33  2  0  0  0  0
 32 72  1  0  0  0  0
 33 34  1  0  0  0  0
 33 73  1  0  0  0  0
 34 35  2  0  0  0  0
 34 36  1  0  0  0  0
 35 74  1  0  0  0  0
 36 37  1  0  0  0  0
 36 75  1  0  0  0  0
 36 76  1  0  0  0  0
 37 38  1  0  0  0  0
 37 77  1  0  0  0  0
 38 39  2  0  0  0  0
 38 43  1  0  0  0  0
 39 40  1  0  0  0  0
 39 78  1  0  0  0  0
 40 41  2  0  0  0  0
 40 79  1  0  0  0  0
 41 42  1  0  0  0  0
 41 80  1  0  0  0  0
 42 43  2  0  0  0  0
 42 81  1  0  0  0  0
 43 82  1  0  0  0  0
 45 83  1  0  0  0  0
 45 84  1  0  0  0  0
M  CHG  1  16   1
M  END
