CatS_245:1_D
 OpenBabel12041818463D

 87 92  0  0  0  0  0  0  0  0999 V2000
   43.6405   -8.1870   49.2891 C   0  0  0  0  0  0  0  0  0  0  0  0
   42.0154   -7.3816   49.3222 S   0  0  0  0  0  0  0  0  0  0  0  0
   41.0855   -8.2485   49.9673 O   0  0  0  0  0  0  0  0  0  0  0  0
   42.1813   -6.0737   49.8666 O   0  0  0  0  0  0  0  0  0  0  0  0
   41.5010   -7.1834   47.7963 N   0  0  0  0  0  0  0  0  0  0  0  0
   41.2978   -8.4500   47.0642 C   0  0  0  0  0  0  0  0  0  0  0  0
   40.4021   -8.2665   45.8209 C   0  0  0  0  0  0  0  0  0  0  0  0
   40.7413   -6.9991   45.0559 C   0  0  0  0  0  0  0  0  0  0  0  0
   41.5821   -6.0888   45.5551 C   0  0  0  0  0  0  0  0  0  0  0  0
   41.6569   -5.1112   44.5363 C   0  0  0  0  0  0  0  0  0  0  0  0
   40.8592   -5.4786   43.5573 N   0  0  0  0  0  0  0  0  0  0  0  0
   40.2540   -6.6554   43.8335 N   0  0  0  0  0  0  0  0  0  0  0  0
   39.3474   -7.3485   42.9020 C   0  0  0  0  0  0  0  0  0  0  0  0
   39.6516   -7.2939   41.3921 C   0  0  0  0  0  0  0  0  0  0  0  0
   38.4697   -7.8720   40.5898 C   0  0  0  0  0  0  0  0  0  0  0  0
   37.7016   -6.8415   39.7999 N   0  3  0  0  0  0  0  0  0  0  0  0
   36.9060   -5.8847   40.6564 C   0  0  0  0  0  0  0  0  0  0  0  0
   36.1284   -4.8942   39.7692 C   0  0  0  0  0  0  0  0  0  0  0  0
   35.3076   -5.5988   38.8208 O   0  0  0  0  0  0  0  0  0  0  0  0
   36.0833   -6.4294   37.9375 C   0  0  0  0  0  0  0  0  0  0  0  0
   36.8544   -7.4962   38.7381 C   0  0  0  0  0  0  0  0  0  0  0  0
   42.4678   -3.9065   44.4658 C   0  0  0  0  0  0  0  0  0  0  0  0
   42.1171   -2.8408   45.2822 C   0  0  0  0  0  0  0  0  0  0  0  0
   42.8226   -1.6595   45.2496 C   0  0  0  0  0  0  0  0  0  0  0  0
   43.8923   -1.5197   44.4009 C   0  0  0  0  0  0  0  0  0  0  0  0
   44.2678   -2.5789   43.5797 C   0  0  0  0  0  0  0  0  0  0  0  0
   43.5534   -3.7720   43.6212 C   0  0  0  0  0  0  0  0  0  0  0  0
   45.3836   -2.4059   42.6848 C   0  0  0  0  0  0  0  0  0  0  0  0
   46.3376   -2.2895   41.9327 C   0  0  0  0  0  0  0  0  0  0  0  0
   47.4745   -2.1849   41.0550 C   0  0  0  0  0  0  0  0  0  0  0  0
   47.3858   -1.3918   39.9172 C   0  0  0  0  0  0  0  0  0  0  0  0
   48.4529   -1.2974   39.0621 C   0  0  0  0  0  0  0  0  0  0  0  0
   49.6311   -1.9672   39.3292 C   0  0  0  0  0  0  0  0  0  0  0  0
   49.7199   -2.7512   40.4636 C   0  0  0  0  0  0  0  0  0  0  0  0
   48.6551   -2.8695   41.3206 C   0  0  0  0  0  0  0  0  0  0  0  0
   50.8239   -1.8897   38.3815 C   0  0  0  0  0  0  0  0  0  0  0  0
   50.5595   -2.2674   36.9415 N   0  3  0  0  0  0  0  0  0  0  0  0
   51.5923   -3.1529   36.2842 C   0  0  0  0  0  0  0  0  0  0  0  0
   51.1376   -4.5898   36.0683 C   0  0  0  0  0  0  0  0  0  0  0  0
   51.5256   -5.3219   34.9750 C   0  0  0  0  0  0  0  0  0  0  0  0
   51.1030   -6.6225   34.8423 C   0  0  0  0  0  0  0  0  0  0  0  0
   50.3173   -7.2490   35.7393 N   0  0  0  0  0  0  0  0  0  0  0  0
   49.9556   -6.5116   36.8068 C   0  0  0  0  0  0  0  0  0  0  0  0
   50.3391   -5.2061   36.9967 C   0  0  0  0  0  0  0  0  0  0  0  0
   44.7787   -0.0241   44.3525 Cl  0  0  0  0  0  0  0  0  0  0  0  0
   42.2359   -6.2388   46.9239 C   0  0  0  0  0  0  0  0  0  0  0  0
   43.9027   -8.3519   48.3383 H   0  0  0  0  0  0  0  0  0  0  0  0
   44.3186   -7.5977   49.7281 H   0  0  0  0  0  0  0  0  0  0  0  0
   43.5959   -9.0556   49.7826 H   0  0  0  0  0  0  0  0  0  0  0  0
   40.8696   -9.1134   47.6779 H   0  0  0  0  0  0  0  0  0  0  0  0
   42.1920   -8.7714   46.7524 H   0  0  0  0  0  0  0  0  0  0  0  0
   39.4467   -8.2241   46.1132 H   0  0  0  0  0  0  0  0  0  0  0  0
   40.5576   -9.0440   45.2115 H   0  0  0  0  0  0  0  0  0  0  0  0
   38.4352   -6.9610   43.0347 H   0  0  0  0  0  0  0  0  0  0  0  0
   39.4551   -8.3151   43.1342 H   0  0  0  0  0  0  0  0  0  0  0  0
   40.4761   -7.8261   41.2003 H   0  0  0  0  0  0  0  0  0  0  0  0
   39.7927   -6.3414   41.1221 H   0  0  0  0  0  0  0  0  0  0  0  0
   37.8408   -8.3149   41.2288 H   0  0  0  0  0  0  0  0  0  0  0  0
   38.8564   -8.5133   39.9271 H   0  0  0  0  0  0  0  0  0  0  0  0
   38.3212   -6.3392   39.3580 H   0  0  0  0  0  0  0  0  0  0  0  0
   37.5282   -5.3785   41.2536 H   0  0  0  0  0  0  0  0  0  0  0  0
   36.2550   -6.4060   41.2081 H   0  0  0  0  0  0  0  0  0  0  0  0
   36.7766   -4.3124   39.2780 H   0  0  0  0  0  0  0  0  0  0  0  0
   35.5379   -4.3357   40.3517 H   0  0  0  0  0  0  0  0  0  0  0  0
   36.7324   -5.8598   37.4333 H   0  0  0  0  0  0  0  0  0  0  0  0
   35.4648   -6.8894   37.3004 H   0  0  0  0  0  0  0  0  0  0  0  0
   36.2047   -8.1212   39.1710 H   0  0  0  0  0  0  0  0  0  0  0  0
   37.4490   -8.0033   38.1141 H   0  0  0  0  0  0  0  0  0  0  0  0
   41.3395   -2.9325   45.9042 H   0  0  0  0  0  0  0  0  0  0  0  0
   42.5554   -0.9019   45.8450 H   0  0  0  0  0  0  0  0  0  0  0  0
   43.8269   -4.5361   43.0369 H   0  0  0  0  0  0  0  0  0  0  0  0
   46.5431   -0.8899   39.7221 H   0  0  0  0  0  0  0  0  0  0  0  0
   48.3778   -0.7380   38.2366 H   0  0  0  0  0  0  0  0  0  0  0  0
   50.5705   -3.2381   40.6624 H   0  0  0  0  0  0  0  0  0  0  0  0
   48.7279   -3.4466   42.1341 H   0  0  0  0  0  0  0  0  0  0  0  0
   51.5347   -2.4986   38.7334 H   0  0  0  0  0  0  0  0  0  0  0  0
   51.0850   -0.9245   38.3594 H   0  0  0  0  0  0  0  0  0  0  0  0
   50.5062   -1.4928   36.4652 H   0  0  0  0  0  0  0  0  0  0  0  0
   49.7276   -2.6290   36.8553 H   0  0  0  0  0  0  0  0  0  0  0  0
   52.4099   -3.1635   36.8598 H   0  0  0  0  0  0  0  0  0  0  0  0
   51.7640   -2.7685   35.3772 H   0  0  0  0  0  0  0  0  0  0  0  0
   52.1131   -4.9109   34.2779 H   0  0  0  0  0  0  0  0  0  0  0  0
   51.3954   -7.1331   34.0337 H   0  0  0  0  0  0  0  0  0  0  0  0
   49.3750   -6.9385   37.5000 H   0  0  0  0  0  0  0  0  0  0  0  0
   50.0369   -4.7073   37.8090 H   0  0  0  0  0  0  0  0  0  0  0  0
   43.1708   -6.5720   46.8020 H   0  0  0  0  0  0  0  0  0  0  0  0
   42.2258   -5.3422   47.3667 H   0  0  0  0  0  0  0  0  0  0  0  0
  1  2  1  0  0  0  0
  1 47  1  0  0  0  0
  1 48  1  0  0  0  0
  1 49  1  0  0  0  0
  2  3  2  0  0  0  0
  2  4  2  0  0  0  0
  2  5  1  0  0  0  0
  5  6  1  0  0  0  0
  5 46  1  0  0  0  0
  6  7  1  0  0  0  0
  6 50  1  0  0  0  0
  6 51  1  0  0  0  0
  7  8  1  0  0  0  0
  7 52  1  0  0  0  0
  7 53  1  0  0  0  0
  8  9  2  0  0  0  0
  8 12  1  0  0  0  0
  9 10  1  0  0  0  0
  9 46  1  0  0  0  0
 10 11  2  0  0  0  0
 10 22  1  0  0  0  0
 11 12  1  0  0  0  0
 12 13  1  0  0  0  0
 13 14  1  0  0  0  0
 13 54  1  0  0  0  0
 13 55  1  0  0  0  0
 14 15  1  0  0  0  0
 14 56  1  0  0  0  0
 14 57  1  0  0  0  0
 15 16  1  0  0  0  0
 15 58  1  0  0  0  0
 15 59  1  0  0  0  0
 16 17  1  0  0  0  0
 16 21  1  0  0  0  0
 16 60  1  0  0  0  0
 17 18  1  0  0  0  0
 17 61  1  0  0  0  0
 17 62  1  0  0  0  0
 18 19  1  0  0  0  0
 18 63  1  0  0  0  0
 18 64  1  0  0  0  0
 19 20  1  0  0  0  0
 20 21  1  0  0  0  0
 20 65  1  0  0  0  0
 20 66  1  0  0  0  0
 21 67  1  0  0  0  0
 21 68  1  0  0  0  0
 22 23  2  0  0  0  0
 22 27  1  0  0  0  0
 23 24  1  0  0  0  0
 23 69  1  0  0  0  0
 24 25  2  0  0  0  0
 24 70  1  0  0  0  0
 25 26  1  0  0  0  0
 25 45  1  0  0  0  0
 26 27  2  0  0  0  0
 26 28  1  0  0  0  0
 27 71  1  0  0  0  0
 28 29  3  0  0  0  0
 29 30  1  0  0  0  0
 30 31  2  0  0  0  0
 30 35  1  0  0  0  0
 31 32  1  0  0  0  0
 31 72  1  0  0  0  0
 32 33  2  0  0  0  0
 32 73  1  0  0  0  0
 33 34  1  0  0  0  0
 33 36  1  0  0  0  0
 34 35  2  0  0  0  0
 34 74  1  0  0  0  0
 35 75  1  0  0  0  0
 36 37  1  0  0  0  0
 36 76  1  0  0  0  0
 36 77  1  0  0  0  0
 37 38  1  0  0  0  0
 37 78  1  0  0  0  0
 37 79  1  0  0  0  0
 38 39  1  0  0  0  0
 38 80  1  0  0  0  0
 38 81  1  0  0  0  0
 39 40  2  0  0  0  0
 39 44  1  0  0  0  0
 40 41  1  0  0  0  0
 40 82  1  0  0  0  0
 41 42  2  0  0  0  0
 41 83  1  0  0  0  0
 42 43  1  0  0  0  0
 43 44  2  0  0  0  0
 43 84  1  0  0  0  0
 44 85  1  0  0  0  0
 46 86  1  0  0  0  0
 46 87  1  0  0  0  0
M  CHG  2  16   1  37   1
M  END
