CatS_211:1_D
 OpenBabel12041818463D

 75 79  0  0  0  0  0  0  0  0999 V2000
   43.2940   -9.5558   46.0708 C   0  0  0  0  0  0  0  0  0  0  0  0
   42.7616   -8.9156   47.6834 S   0  0  0  0  0  0  0  0  0  0  0  0
   43.8925   -8.3003   48.2986 O   0  0  0  0  0  0  0  0  0  0  0  0
   42.1091   -9.9597   48.4029 O   0  0  0  0  0  0  0  0  0  0  0  0
   41.6671   -7.7372   47.4196 N   0  0  0  0  0  0  0  0  0  0  0  0
   40.3079   -8.1549   47.0098 C   0  0  0  0  0  0  0  0  0  0  0  0
   40.2903   -8.5472   45.5160 C   0  0  0  0  0  0  0  0  0  0  0  0
   40.7556   -7.3636   44.6881 C   0  0  0  0  0  0  0  0  0  0  0  0
   41.5538   -6.4389   45.2262 C   0  0  0  0  0  0  0  0  0  0  0  0
   41.6922   -5.4766   44.1996 C   0  0  0  0  0  0  0  0  0  0  0  0
   41.0114   -5.8945   43.1518 N   0  0  0  0  0  0  0  0  0  0  0  0
   40.4086   -7.0852   43.4029 N   0  0  0  0  0  0  0  0  0  0  0  0
   39.4823   -7.7550   42.4723 C   0  0  0  0  0  0  0  0  0  0  0  0
   39.3406   -7.2901   41.0032 C   0  0  0  0  0  0  0  0  0  0  0  0
   38.0597   -6.4572   40.7785 C   0  0  0  0  0  0  0  0  0  0  0  0
   36.9643   -7.1651   40.0189 N   0  3  0  0  0  0  0  0  0  0  0  0
   37.1676   -7.1372   38.5227 C   0  0  0  0  0  0  0  0  0  0  0  0
   36.8260   -5.7410   37.9659 C   0  0  0  0  0  0  0  0  0  0  0  0
   35.4888   -5.3603   38.3414 O   0  0  0  0  0  0  0  0  0  0  0  0
   35.3246   -5.2854   39.7696 C   0  0  0  0  0  0  0  0  0  0  0  0
   35.5993   -6.6567   40.4155 C   0  0  0  0  0  0  0  0  0  0  0  0
   42.4036   -4.2072   44.2533 C   0  0  0  0  0  0  0  0  0  0  0  0
   43.4675   -3.9720   43.3928 C   0  0  0  0  0  0  0  0  0  0  0  0
   44.1721   -2.7890   43.4490 C   0  0  0  0  0  0  0  0  0  0  0  0
   43.8351   -1.8259   44.3663 C   0  0  0  0  0  0  0  0  0  0  0  0
   42.7687   -2.0386   45.2368 C   0  0  0  0  0  0  0  0  0  0  0  0
   42.0476   -3.2281   45.1648 C   0  0  0  0  0  0  0  0  0  0  0  0
   42.4957   -1.0021   46.2009 C   0  0  0  0  0  0  0  0  0  0  0  0
   42.3075   -0.1789   47.0829 C   0  0  0  0  0  0  0  0  0  0  0  0
   42.1298    0.7360   48.1838 C   0  0  0  0  0  0  0  0  0  0  0  0
   42.5224    2.0635   48.0456 C   0  0  0  0  0  0  0  0  0  0  0  0
   42.3547    2.9403   49.0858 C   0  0  0  0  0  0  0  0  0  0  0  0
   41.7961    2.5080   50.2692 C   0  0  0  0  0  0  0  0  0  0  0  0
   41.4041    1.1938   50.4113 C   0  0  0  0  0  0  0  0  0  0  0  0
   41.5613    0.2956   49.3827 C   0  0  0  0  0  0  0  0  0  0  0  0
   41.1312   -1.1628   49.5301 C   0  0  0  0  0  0  0  0  0  0  0  0
   39.7203   -1.3623   50.0127 N   0  3  0  0  0  0  0  0  0  0  0  0
   44.7533   -0.3454   44.4446 Cl  0  0  0  0  0  0  0  0  0  0  0  0
   42.0576   -6.5183   46.6661 C   0  0  0  0  0  0  0  0  0  0  0  0
   42.8119   -9.0601   45.3484 H   0  0  0  0  0  0  0  0  0  0  0  0
   44.2803   -9.4289   45.9658 H   0  0  0  0  0  0  0  0  0  0  0  0
   43.0831  -10.5314   46.0096 H   0  0  0  0  0  0  0  0  0  0  0  0
   39.6700   -7.4000   47.1622 H   0  0  0  0  0  0  0  0  0  0  0  0
   40.0354   -8.9480   47.5546 H   0  0  0  0  0  0  0  0  0  0  0  0
   39.3622   -8.8040   45.2463 H   0  0  0  0  0  0  0  0  0  0  0  0
   40.9005   -9.3247   45.3640 H   0  0  0  0  0  0  0  0  0  0  0  0
   38.5721   -7.6889   42.8812 H   0  0  0  0  0  0  0  0  0  0  0  0
   39.8941   -8.6607   42.3722 H   0  0  0  0  0  0  0  0  0  0  0  0
   39.3132   -8.0948   40.4100 H   0  0  0  0  0  0  0  0  0  0  0  0
   40.1257   -6.7098   40.7868 H   0  0  0  0  0  0  0  0  0  0  0  0
   38.3092   -5.6323   40.2714 H   0  0  0  0  0  0  0  0  0  0  0  0
   37.6887   -6.2646   41.6870 H   0  0  0  0  0  0  0  0  0  0  0  0
   36.9903   -8.0403   40.2719 H   0  0  0  0  0  0  0  0  0  0  0  0
   36.5759   -7.8203   38.0946 H   0  0  0  0  0  0  0  0  0  0  0  0
   38.1247   -7.3433   38.3194 H   0  0  0  0  0  0  0  0  0  0  0  0
   36.8986   -5.7562   36.9687 H   0  0  0  0  0  0  0  0  0  0  0  0
   37.4687   -5.0758   38.3460 H   0  0  0  0  0  0  0  0  0  0  0  0
   34.3897   -5.0004   39.9807 H   0  0  0  0  0  0  0  0  0  0  0  0
   35.9753   -4.6201   40.1358 H   0  0  0  0  0  0  0  0  0  0  0  0
   35.5557   -6.5691   41.4108 H   0  0  0  0  0  0  0  0  0  0  0  0
   34.9082   -7.3060   40.0981 H   0  0  0  0  0  0  0  0  0  0  0  0
   43.7256   -4.6694   42.7242 H   0  0  0  0  0  0  0  0  0  0  0  0
   44.9323   -2.6318   42.8186 H   0  0  0  0  0  0  0  0  0  0  0  0
   41.2689   -3.3754   45.7746 H   0  0  0  0  0  0  0  0  0  0  0  0
   42.9271    2.3782   47.1870 H   0  0  0  0  0  0  0  0  0  0  0  0
   42.6379    3.8942   48.9860 H   0  0  0  0  0  0  0  0  0  0  0  0
   41.6748    3.1493   51.0269 H   0  0  0  0  0  0  0  0  0  0  0  0
   41.0000    0.8901   51.2742 H   0  0  0  0  0  0  0  0  0  0  0  0
   41.7495   -1.6062   50.1790 H   0  0  0  0  0  0  0  0  0  0  0  0
   41.1710   -1.5603   48.6133 H   0  0  0  0  0  0  0  0  0  0  0  0
   39.4170   -2.2025   49.8396 H   0  0  0  0  0  0  0  0  0  0  0  0
   39.6440   -1.2263   50.9093 H   0  0  0  0  0  0  0  0  0  0  0  0
   39.1396   -0.7892   49.6084 H   0  0  0  0  0  0  0  0  0  0  0  0
   43.0565   -6.4740   46.6475 H   0  0  0  0  0  0  0  0  0  0  0  0
   41.6286   -5.7528   47.1458 H   0  0  0  0  0  0  0  0  0  0  0  0
  1  2  1  0  0  0  0
  1 40  1  0  0  0  0
  1 41  1  0  0  0  0
  1 42  1  0  0  0  0
  2  3  2  0  0  0  0
  2  4  2  0  0  0  0
  2  5  1  0  0  0  0
  5  6  1  0  0  0  0
  5 39  1  0  0  0  0
  6  7  1  0  0  0  0
  6 43  1  0  0  0  0
  6 44  1  0  0  0  0
  7  8  1  0  0  0  0
  7 45  1  0  0  0  0
  7 46  1  0  0  0  0
  8  9  2  0  0  0  0
  8 12  1  0  0  0  0
  9 10  1  0  0  0  0
  9 39  1  0  0  0  0
 10 11  2  0  0  0  0
 10 22  1  0  0  0  0
 11 12  1  0  0  0  0
 12 13  1  0  0  0  0
 13 14  1  0  0  0  0
 13 47  1  0  0  0  0
 13 48  1  0  0  0  0
 14 15  1  0  0  0  0
 14 49  1  0  0  0  0
 14 50  1  0  0  0  0
 15 16  1  0  0  0  0
 15 51  1  0  0  0  0
 15 52  1  0  0  0  0
 16 17  1  0  0  0  0
 16 21  1  0  0  0  0
 16 53  1  0  0  0  0
 17 18  1  0  0  0  0
 17 54  1  0  0  0  0
 17 55  1  0  0  0  0
 18 19  1  0  0  0  0
 18 56  1  0  0  0  0
 18 57  1  0  0  0  0
 19 20  1  0  0  0  0
 20 21  1  0  0  0  0
 20 58  1  0  0  0  0
 20 59  1  0  0  0  0
 21 60  1  0  0  0  0
 21 61  1  0  0  0  0
 22 23  2  0  0  0  0
 22 27  1  0  0  0  0
 23 24  1  0  0  0  0
 23 62  1  0  0  0  0
 24 25  2  0  0  0  0
 24 63  1  0  0  0  0
 25 26  1  0  0  0  0
 25 38  1  0  0  0  0
 26 27  2  0  0  0  0
 26 28  1  0  0  0  0
 27 64  1  0  0  0  0
 28 29  3  0  0  0  0
 29 30  1  0  0  0  0
 30 31  2  0  0  0  0
 30 35  1  0  0  0  0
 31 32  1  0  0  0  0
 31 65  1  0  0  0  0
 32 33  2  0  0  0  0
 32 66  1  0  0  0  0
 33 34  1  0  0  0  0
 33 67  1  0  0  0  0
 34 35  2  0  0  0  0
 34 68  1  0  0  0  0
 35 36  1  0  0  0  0
 36 37  1  0  0  0  0
 36 69  1  0  0  0  0
 36 70  1  0  0  0  0
 37 71  1  0  0  0  0
 37 72  1  0  0  0  0
 37 73  1  0  0  0  0
 39 74  1  0  0  0  0
 39 75  1  0  0  0  0
M  CHG  2  16   1  37   1
M  END
