CatS_394:1_D
 OpenBabel12041818463D

 88 93  0  0  0  0  0  0  0  0999 V2000
   44.3201   -8.3718   47.5825 C   0  0  0  0  0  0  0  0  0  0  0  0
   42.7617   -7.6904   48.2123 S   0  0  0  0  0  0  0  0  0  0  0  0
   42.0461   -8.7488   48.8463 O   0  0  0  0  0  0  0  0  0  0  0  0
   43.0579   -6.5401   49.0020 O   0  0  0  0  0  0  0  0  0  0  0  0
   41.8491   -7.2012   46.9544 N   0  0  0  0  0  0  0  0  0  0  0  0
   41.3648   -8.2103   45.9897 C   0  0  0  0  0  0  0  0  0  0  0  0
   40.2598   -7.6561   45.0575 C   0  0  0  0  0  0  0  0  0  0  0  0
   40.6250   -6.2904   44.4994 C   0  0  0  0  0  0  0  0  0  0  0  0
   41.6360   -5.5885   45.0179 C   0  0  0  0  0  0  0  0  0  0  0  0
   41.7017   -4.4395   44.1972 C   0  0  0  0  0  0  0  0  0  0  0  0
   40.7350   -4.5175   43.3096 N   0  0  0  0  0  0  0  0  0  0  0  0
   40.0183   -5.6541   43.4598 N   0  0  0  0  0  0  0  0  0  0  0  0
   38.8012   -5.9469   42.6850 C   0  0  0  0  0  0  0  0  0  0  0  0
   38.8275   -6.1590   41.1579 C   0  0  0  0  0  0  0  0  0  0  0  0
   37.7635   -5.3078   40.4303 C   0  0  0  0  0  0  0  0  0  0  0  0
   36.3894   -5.9318   40.4040 N   0  3  0  0  0  0  0  0  0  0  0  0
   36.4363   -7.4257   40.2048 C   0  0  0  0  0  0  0  0  0  0  0  0
   36.8010   -7.7337   38.7399 C   0  0  0  0  0  0  0  0  0  0  0  0
   35.8584   -7.1052   37.8498 O   0  0  0  0  0  0  0  0  0  0  0  0
   35.8421   -5.6705   37.9900 C   0  0  0  0  0  0  0  0  0  0  0  0
   35.4570   -5.2628   39.4266 C   0  0  0  0  0  0  0  0  0  0  0  0
   42.6376   -3.3272   44.2275 C   0  0  0  0  0  0  0  0  0  0  0  0
   42.4399   -2.2479   45.0817 C   0  0  0  0  0  0  0  0  0  0  0  0
   43.3318   -1.2004   45.1205 C   0  0  0  0  0  0  0  0  0  0  0  0
   44.4441   -1.2180   44.3186 C   0  0  0  0  0  0  0  0  0  0  0  0
   44.6680   -2.2961   43.4655 C   0  0  0  0  0  0  0  0  0  0  0  0
   43.7550   -3.3434   43.4175 C   0  0  0  0  0  0  0  0  0  0  0  0
   45.8717   -2.2676   42.6752 C   0  0  0  0  0  0  0  0  0  0  0  0
   46.8247   -2.2486   41.9136 C   0  0  0  0  0  0  0  0  0  0  0  0
   47.8625   -2.2390   40.9158 C   0  0  0  0  0  0  0  0  0  0  0  0
   47.4936   -1.8676   39.6287 C   0  0  0  0  0  0  0  0  0  0  0  0
   48.4123   -1.8934   38.6151 C   0  0  0  0  0  0  0  0  0  0  0  0
   49.7072   -2.3052   38.8545 C   0  0  0  0  0  0  0  0  0  0  0  0
   50.0876   -2.6393   40.1422 C   0  0  0  0  0  0  0  0  0  0  0  0
   49.1787   -2.6073   41.1734 C   0  0  0  0  0  0  0  0  0  0  0  0
   51.7324   -3.1132   40.4548 Cl  0  0  0  0  0  0  0  0  0  0  0  0
   50.7242   -2.3983   37.7235 C   0  0  0  0  0  0  0  0  0  0  0  0
   50.3988   -3.4099   36.6459 N   0  3  0  0  0  0  0  0  0  0  0  0
   51.4080   -4.5148   36.4133 C   0  0  0  0  0  0  0  0  0  0  0  0
   50.7884   -5.9053   36.4778 C   0  0  0  0  0  0  0  0  0  0  0  0
   50.4999   -6.6011   35.3238 C   0  0  0  0  0  0  0  0  0  0  0  0
   49.9448   -7.8592   35.3895 C   0  0  0  0  0  0  0  0  0  0  0  0
   49.6707   -8.4280   36.6120 C   0  0  0  0  0  0  0  0  0  0  0  0
   49.9512   -7.7359   37.7675 C   0  0  0  0  0  0  0  0  0  0  0  0
   50.5074   -6.4785   37.6991 C   0  0  0  0  0  0  0  0  0  0  0  0
   45.5712    0.1088   44.3694 Cl  0  0  0  0  0  0  0  0  0  0  0  0
   42.4526   -6.0736   46.2090 C   0  0  0  0  0  0  0  0  0  0  0  0
   44.3197   -8.3164   46.5840 H   0  0  0  0  0  0  0  0  0  0  0  0
   45.0899   -7.8490   47.9485 H   0  0  0  0  0  0  0  0  0  0  0  0
   44.4099   -9.3261   47.8676 H   0  0  0  0  0  0  0  0  0  0  0  0
   40.9989   -8.9909   46.4964 H   0  0  0  0  0  0  0  0  0  0  0  0
   42.1389   -8.4781   45.4160 H   0  0  0  0  0  0  0  0  0  0  0  0
   39.4067   -7.5801   45.5737 H   0  0  0  0  0  0  0  0  0  0  0  0
   40.1566   -8.2872   44.2886 H   0  0  0  0  0  0  0  0  0  0  0  0
   38.1737   -5.1865   42.8522 H   0  0  0  0  0  0  0  0  0  0  0  0
   38.5612   -6.8599   43.0149 H   0  0  0  0  0  0  0  0  0  0  0  0
   38.6585   -7.1252   40.9628 H   0  0  0  0  0  0  0  0  0  0  0  0
   39.7262   -5.8740   40.8246 H   0  0  0  0  0  0  0  0  0  0  0  0
   38.0645   -5.1648   39.4874 H   0  0  0  0  0  0  0  0  0  0  0  0
   37.6808   -4.4516   40.9402 H   0  0  0  0  0  0  0  0  0  0  0  0
   36.0223   -5.7868   41.2249 H   0  0  0  0  0  0  0  0  0  0  0  0
   35.5431   -7.8209   40.4194 H   0  0  0  0  0  0  0  0  0  0  0  0
   37.1257   -7.8225   40.8106 H   0  0  0  0  0  0  0  0  0  0  0  0
   36.7866   -8.7231   38.5954 H   0  0  0  0  0  0  0  0  0  0  0  0
   37.7155   -7.3768   38.5496 H   0  0  0  0  0  0  0  0  0  0  0  0
   35.1791   -5.2847   37.3484 H   0  0  0  0  0  0  0  0  0  0  0  0
   36.7581   -5.3199   37.7942 H   0  0  0  0  0  0  0  0  0  0  0  0
   35.5255   -4.2699   39.5241 H   0  0  0  0  0  0  0  0  0  0  0  0
   34.5170   -5.5485   39.6129 H   0  0  0  0  0  0  0  0  0  0  0  0
   41.6367   -2.2326   45.6773 H   0  0  0  0  0  0  0  0  0  0  0  0
   43.1689   -0.4269   45.7331 H   0  0  0  0  0  0  0  0  0  0  0  0
   43.9083   -4.1106   42.7946 H   0  0  0  0  0  0  0  0  0  0  0  0
   46.5539   -1.5807   39.4426 H   0  0  0  0  0  0  0  0  0  0  0  0
   48.1433   -1.6117   37.6941 H   0  0  0  0  0  0  0  0  0  0  0  0
   49.4620   -2.8474   42.1019 H   0  0  0  0  0  0  0  0  0  0  0  0
   51.6096   -2.6397   38.1208 H   0  0  0  0  0  0  0  0  0  0  0  0
   50.7212   -1.5051   37.2737 H   0  0  0  0  0  0  0  0  0  0  0  0
   50.2817   -2.9586   35.8624 H   0  0  0  0  0  0  0  0  0  0  0  0
   49.5737   -3.7623   36.7992 H   0  0  0  0  0  0  0  0  0  0  0  0
   52.1225   -4.4483   37.1097 H   0  0  0  0  0  0  0  0  0  0  0  0
   51.7780   -4.3945   35.4921 H   0  0  0  0  0  0  0  0  0  0  0  0
   50.6950   -6.1898   34.4335 H   0  0  0  0  0  0  0  0  0  0  0  0
   49.7408   -8.3599   34.5483 H   0  0  0  0  0  0  0  0  0  0  0  0
   49.2684   -9.3422   36.6604 H   0  0  0  0  0  0  0  0  0  0  0  0
   49.7511   -8.1463   38.6571 H   0  0  0  0  0  0  0  0  0  0  0  0
   50.7090   -5.9778   38.5410 H   0  0  0  0  0  0  0  0  0  0  0  0
   43.3504   -6.3628   45.8771 H   0  0  0  0  0  0  0  0  0  0  0  0
   42.5007   -5.3061   46.8482 H   0  0  0  0  0  0  0  0  0  0  0  0
  1  2  1  0  0  0  0
  1 48  1  0  0  0  0
  1 49  1  0  0  0  0
  1 50  1  0  0  0  0
  2  3  2  0  0  0  0
  2  4  2  0  0  0  0
  2  5  1  0  0  0  0
  5  6  1  0  0  0  0
  5 47  1  0  0  0  0
  6  7  1  0  0  0  0
  6 51  1  0  0  0  0
  6 52  1  0  0  0  0
  7  8  1  0  0  0  0
  7 53  1  0  0  0  0
  7 54  1  0  0  0  0
  8  9  2  0  0  0  0
  8 12  1  0  0  0  0
  9 10  1  0  0  0  0
  9 47  1  0  0  0  0
 10 11  2  0  0  0  0
 10 22  1  0  0  0  0
 11 12  1  0  0  0  0
 12 13  1  0  0  0  0
 13 14  1  0  0  0  0
 13 55  1  0  0  0  0
 13 56  1  0  0  0  0
 14 15  1  0  0  0  0
 14 57  1  0  0  0  0
 14 58  1  0  0  0  0
 15 16  1  0  0  0  0
 15 59  1  0  0  0  0
 15 60  1  0  0  0  0
 16 17  1  0  0  0  0
 16 21  1  0  0  0  0
 16 61  1  0  0  0  0
 17 18  1  0  0  0  0
 17 62  1  0  0  0  0
 17 63  1  0  0  0  0
 18 19  1  0  0  0  0
 18 64  1  0  0  0  0
 18 65  1  0  0  0  0
 19 20  1  0  0  0  0
 20 21  1  0  0  0  0
 20 66  1  0  0  0  0
 20 67  1  0  0  0  0
 21 68  1  0  0  0  0
 21 69  1  0  0  0  0
 22 23  2  0  0  0  0
 22 27  1  0  0  0  0
 23 24  1  0  0  0  0
 23 70  1  0  0  0  0
 24 25  2  0  0  0  0
 24 71  1  0  0  0  0
 25 26  1  0  0  0  0
 25 46  1  0  0  0  0
 26 27  2  0  0  0  0
 26 28  1  0  0  0  0
 27 72  1  0  0  0  0
 28 29  3  0  0  0  0
 29 30  1  0  0  0  0
 30 31  2  0  0  0  0
 30 35  1  0  0  0  0
 31 32  1  0  0  0  0
 31 73  1  0  0  0  0
 32 33  2  0  0  0  0
 32 74  1  0  0  0  0
 33 34  1  0  0  0  0
 33 37  1  0  0  0  0
 34 35  2  0  0  0  0
 34 36  1  0  0  0  0
 35 75  1  0  0  0  0
 37 38  1  0  0  0  0
 37 76  1  0  0  0  0
 37 77  1  0  0  0  0
 38 39  1  0  0  0  0
 38 78  1  0  0  0  0
 38 79  1  0  0  0  0
 39 40  1  0  0  0  0
 39 80  1  0  0  0  0
 39 81  1  0  0  0  0
 40 41  2  0  0  0  0
 40 45  1  0  0  0  0
 41 42  1  0  0  0  0
 41 82  1  0  0  0  0
 42 43  2  0  0  0  0
 42 83  1  0  0  0  0
 43 44  1  0  0  0  0
 43 84  1  0  0  0  0
 44 45  2  0  0  0  0
 44 85  1  0  0  0  0
 45 86  1  0  0  0  0
 47 87  1  0  0  0  0
 47 88  1  0  0  0  0
M  CHG  2  16   1  38   1
M  END
