CatS_142:1_D
 OpenBabel12041818463D

102107  0  0  1  0  0  0  0  0999 V2000
   41.5896  -16.2421   49.5371 C   0  0  0  0  0  0  0  0  0  0  0  0
   40.4336  -15.5043   48.9989 N   0  0  0  0  0  0  0  0  0  0  0  0
   39.5216  -16.4332   48.3083 C   0  0  0  0  0  0  0  0  0  0  0  0
   40.5728  -14.1726   48.5654 C   0  0  0  0  0  0  0  0  0  0  0  0
   41.2110  -13.2332   49.3595 C   0  0  0  0  0  0  0  0  0  0  0  0
   41.3535  -11.9349   48.9340 C   0  0  0  0  0  0  0  0  0  0  0  0
   40.8630  -11.5352   47.7035 C   0  0  0  0  0  0  0  0  0  0  0  0
   40.2137  -12.4691   46.9132 C   0  0  0  0  0  0  0  0  0  0  0  0
   40.0702  -13.7669   47.3391 C   0  0  0  0  0  0  0  0  0  0  0  0
   41.0330  -10.2007   47.2865 N   0  0  0  0  0  0  0  0  0  0  0  0
   40.7751   -9.6718   46.0643 C   0  0  0  0  0  0  0  0  0  0  0  0
   40.2348  -10.3456   45.1822 O   0  0  0  0  0  0  0  0  0  0  0  0
   41.1096   -8.3771   45.8245 N   0  0  0  0  0  0  0  0  0  0  0  0
   41.9111   -7.5773   46.7864 C   0  0  0  0  0  0  0  0  0  0  0  0
   42.5622   -6.2803   46.2458 C   0  0  0  0  0  0  0  0  0  0  0  0
   41.6966   -5.5918   45.2067 C   0  0  0  0  0  0  0  0  0  0  0  0
   40.8348   -6.2747   44.4523 C   0  0  0  0  0  0  0  0  0  0  0  0
   40.2623   -5.2866   43.6194 C   0  0  0  0  0  0  0  0  0  0  0  0
   40.7934   -4.1228   43.9309 N   0  0  0  0  0  0  0  0  0  0  0  0
   41.7085   -4.2650   44.9189 N   0  0  0  0  0  0  0  0  0  0  0  0
   42.5688   -3.1888   45.4315 C   0  0  0  0  0  0  0  0  0  0  0  0
   43.3476   -2.4327   44.3402 C   0  0  2  0  0  0  0  0  0  0  0  0
   44.6897   -3.1215   44.0124 C   0  0  0  0  0  0  0  0  0  0  0  0
   45.3265   -2.6369   42.7314 N   0  3  0  0  0  0  0  0  0  0  0  0
   46.3636   -1.5653   42.9703 C   0  0  0  0  0  0  0  0  0  0  0  0
   47.0451   -1.1391   41.6530 C   0  0  0  0  0  0  0  0  0  0  0  0
   45.9872   -0.6815   40.6308 C   0  0  0  0  0  0  0  0  0  0  0  0
   44.9821   -1.8198   40.3752 C   0  0  0  0  0  0  0  0  0  0  0  0
   44.3049   -2.2222   41.7006 C   0  0  0  0  0  0  0  0  0  0  0  0
   43.5703   -1.0723   44.7387 O   0  0  0  0  0  0  0  0  0  0  0  0
   39.2664   -5.4587   42.5752 C   0  0  0  0  0  0  0  0  0  0  0  0
   38.2665   -4.5218   42.3949 C   0  0  0  0  0  0  0  0  0  0  0  0
   37.3198   -4.6891   41.4116 C   0  0  0  0  0  0  0  0  0  0  0  0
   37.3362   -5.7862   40.5728 C   0  0  0  0  0  0  0  0  0  0  0  0
   38.3474   -6.7209   40.7482 C   0  0  0  0  0  0  0  0  0  0  0  0
   39.2946   -6.5547   41.7322 C   0  0  0  0  0  0  0  0  0  0  0  0
   38.4914   -8.1788   39.7012 S   0  0  0  0  0  0  0  0  0  0  0  0
   39.6570   -7.7956   38.3623 C   0  0  0  0  0  0  0  0  0  0  0  0
   40.5928   -8.9884   38.0763 C   0  0  0  0  0  0  0  0  0  0  0  0
   41.5971   -8.7236   36.9805 N   0  3  2  0  0  0  0  0  0  0  0  0
   42.3863   -9.9614   36.6273 C   0  0  0  0  0  0  0  0  0  0  0  0
   43.3532   -9.6943   35.4556 C   0  0  0  0  0  0  0  0  0  0  0  0
   44.2894   -8.5223   35.8051 C   0  0  2  0  0  0  0  0  0  0  0  0
   43.4562   -7.2629   36.1065 C   0  0  0  0  0  0  0  0  0  0  0  0
   42.4915   -7.5424   37.2767 C   0  0  0  0  0  0  0  0  0  0  0  0
   45.1327   -8.2695   34.7295 F   0  0  0  0  0  0  0  0  0  0  0  0
   36.2384   -5.8761   39.5138 C   0  0  0  0  0  0  0  0  0  0  0  0
   36.7698   -5.7410   38.2360 F   0  0  0  0  0  0  0  0  0  0  0  0
   35.5914   -7.1058   39.5669 F   0  0  0  0  0  0  0  0  0  0  0  0
   35.2546   -4.9001   39.6458 F   0  0  0  0  0  0  0  0  0  0  0  0
   40.6190   -7.7751   44.5643 C   0  0  0  0  0  0  0  0  0  0  0  0
   42.7911   -2.4441   43.5095 H   0  0  0  0  0  0  0  0  0  0  0  0
   42.3922  -15.6460   49.5219 H   0  0  0  0  0  0  0  0  0  0  0  0
   41.4002  -16.5282   50.4764 H   0  0  0  0  0  0  0  0  0  0  0  0
   41.7609  -17.0535   48.9781 H   0  0  0  0  0  0  0  0  0  0  0  0
   39.0790  -15.9524   47.5514 H   0  0  0  0  0  0  0  0  0  0  0  0
   40.0377  -17.2137   47.9557 H   0  0  0  0  0  0  0  0  0  0  0  0
   38.8290  -16.7637   48.9494 H   0  0  0  0  0  0  0  0  0  0  0  0
   41.5719  -13.5034   50.2522 H   0  0  0  0  0  0  0  0  0  0  0  0
   41.8172  -11.2710   49.5204 H   0  0  0  0  0  0  0  0  0  0  0  0
   39.8461  -12.1959   46.0243 H   0  0  0  0  0  0  0  0  0  0  0  0
   39.5968  -14.4278   46.7568 H   0  0  0  0  0  0  0  0  0  0  0  0
   41.3465   -9.6524   47.8949 H   0  0  0  0  0  0  0  0  0  0  0  0
   42.6429   -8.1639   47.1333 H   0  0  0  0  0  0  0  0  0  0  0  0
   41.2578   -7.2708   47.4787 H   0  0  0  0  0  0  0  0  0  0  0  0
   43.4438   -6.5092   45.8331 H   0  0  0  0  0  0  0  0  0  0  0  0
   42.6743   -5.6509   47.0147 H   0  0  0  0  0  0  0  0  0  0  0  0
   43.2264   -3.5880   46.0704 H   0  0  0  0  0  0  0  0  0  0  0  0
   41.9657   -2.5214   45.8682 H   0  0  0  0  0  0  0  0  0  0  0  0
   44.5301   -4.1056   43.9352 H   0  0  0  0  0  0  0  0  0  0  0  0
   45.3215   -2.8955   44.7538 H   0  0  0  0  0  0  0  0  0  0  0  0
   45.7745   -3.3474   42.3774 H   0  0  0  0  0  0  0  0  0  0  0  0
   47.0570   -1.9158   43.5999 H   0  0  0  0  0  0  0  0  0  0  0  0
   45.9064   -0.7659   43.3601 H   0  0  0  0  0  0  0  0  0  0  0  0
   47.5569   -1.9125   41.2788 H   0  0  0  0  0  0  0  0  0  0  0  0
   47.6679   -0.3791   41.8388 H   0  0  0  0  0  0  0  0  0  0  0  0
   46.4375   -0.4339   39.7730 H   0  0  0  0  0  0  0  0  0  0  0  0
   45.4996    0.1126   40.9937 H   0  0  0  0  0  0  0  0  0  0  0  0
   45.4617   -2.6087   39.9910 H   0  0  0  0  0  0  0  0  0  0  0  0
   44.2850   -1.5072   39.7299 H   0  0  0  0  0  0  0  0  0  0  0  0
   43.7819   -1.4455   42.0516 H   0  0  0  0  0  0  0  0  0  0  0  0
   43.7009   -2.9991   41.5231 H   0  0  0  0  0  0  0  0  0  0  0  0
   43.3613   -0.4330   43.9906 H   0  0  0  0  0  0  0  0  0  0  0  0
   38.2311   -3.7150   42.9846 H   0  0  0  0  0  0  0  0  0  0  0  0
   36.6029   -4.0008   41.3014 H   0  0  0  0  0  0  0  0  0  0  0  0
   40.0161   -7.2386   41.8399 H   0  0  0  0  0  0  0  0  0  0  0  0
   40.2066   -7.0022   38.6239 H   0  0  0  0  0  0  0  0  0  0  0  0
   39.1327   -7.6011   37.5333 H   0  0  0  0  0  0  0  0  0  0  0  0
   40.0333   -9.7740   37.8120 H   0  0  0  0  0  0  0  0  0  0  0  0
   41.1136   -9.1577   38.9130 H   0  0  0  0  0  0  0  0  0  0  0  0
   41.1162   -8.5077   36.2367 H   0  0  0  0  0  0  0  0  0  0  0  0
   41.7527  -10.6911   36.3702 H   0  0  0  0  0  0  0  0  0  0  0  0
   42.9259  -10.2298   37.4253 H   0  0  0  0  0  0  0  0  0  0  0  0
   42.8280   -9.4691   34.6350 H   0  0  0  0  0  0  0  0  0  0  0  0
   43.9018  -10.5136   35.2884 H   0  0  0  0  0  0  0  0  0  0  0  0
   44.8319   -8.7613   36.6105 H   0  0  0  0  0  0  0  0  0  0  0  0
   42.9318   -7.0078   35.2942 H   0  0  0  0  0  0  0  0  0  0  0  0
   44.0694   -6.5139   36.3574 H   0  0  0  0  0  0  0  0  0  0  0  0
   43.0230   -7.7333   38.1019 H   0  0  0  0  0  0  0  0  0  0  0  0
   41.9154   -6.7358   37.4087 H   0  0  0  0  0  0  0  0  0  0  0  0
   39.6386   -7.9578   44.4910 H   0  0  0  0  0  0  0  0  0  0  0  0
   41.1502   -8.1917   43.8266 H   0  0  0  0  0  0  0  0  0  0  0  0
  1  2  1  0  0  0  0
  1 53  1  0  0  0  0
  1 54  1  0  0  0  0
  1 55  1  0  0  0  0
  2  3  1  0  0  0  0
  2  4  1  0  0  0  0
  3 56  1  0  0  0  0
  3 57  1  0  0  0  0
  3 58  1  0  0  0  0
  4  5  2  0  0  0  0
  4  9  1  0  0  0  0
  5  6  1  0  0  0  0
  5 59  1  0  0  0  0
  6  7  2  0  0  0  0
  6 60  1  0  0  0  0
  7  8  1  0  0  0  0
  7 10  1  0  0  0  0
  8  9  2  0  0  0  0
  8 61  1  0  0  0  0
  9 62  1  0  0  0  0
 10 11  1  0  0  0  0
 10 63  1  0  0  0  0
 11 12  2  0  0  0  0
 11 13  1  0  0  0  0
 13 14  1  0  0  0  0
 13 51  1  0  0  0  0
 14 15  1  0  0  0  0
 14 64  1  0  0  0  0
 14 65  1  0  0  0  0
 15 16  1  0  0  0  0
 15 66  1  0  0  0  0
 15 67  1  0  0  0  0
 16 17  2  0  0  0  0
 16 20  1  0  0  0  0
 17 18  1  0  0  0  0
 17 51  1  0  0  0  0
 18 19  2  0  0  0  0
 18 31  1  0  0  0  0
 19 20  1  0  0  0  0
 20 21  1  0  0  0  0
 21 22  1  0  0  0  0
 21 68  1  0  0  0  0
 21 69  1  0  0  0  0
 22 23  1  0  0  0  0
 22 30  1  0  0  0  0
 22 52  1  6  0  0  0
 23 24  1  0  0  0  0
 23 70  1  0  0  0  0
 23 71  1  0  0  0  0
 24 25  1  0  0  0  0
 24 29  1  0  0  0  0
 24 72  1  0  0  0  0
 25 26  1  0  0  0  0
 25 73  1  0  0  0  0
 25 74  1  0  0  0  0
 26 27  1  0  0  0  0
 26 75  1  0  0  0  0
 26 76  1  0  0  0  0
 27 28  1  0  0  0  0
 27 77  1  0  0  0  0
 27 78  1  0  0  0  0
 28 29  1  0  0  0  0
 28 79  1  0  0  0  0
 28 80  1  0  0  0  0
 29 81  1  0  0  0  0
 29 82  1  0  0  0  0
 30 83  1  0  0  0  0
 31 32  2  0  0  0  0
 31 36  1  0  0  0  0
 32 33  1  0  0  0  0
 32 84  1  0  0  0  0
 33 34  2  0  0  0  0
 33 85  1  0  0  0  0
 34 35  1  0  0  0  0
 34 47  1  0  0  0  0
 35 36  2  0  0  0  0
 35 37  1  0  0  0  0
 36 86  1  0  0  0  0
 37 38  1  0  0  0  0
 38 39  1  0  0  0  0
 38 87  1  0  0  0  0
 38 88  1  0  0  0  0
 39 40  1  0  0  0  0
 39 89  1  0  0  0  0
 39 90  1  0  0  0  0
 40 41  1  0  0  0  0
 40 45  1  0  0  0  0
 40 91  1  6  0  0  0
 41 42  1  0  0  0  0
 41 92  1  0  0  0  0
 41 93  1  0  0  0  0
 42 43  1  0  0  0  0
 42 94  1  0  0  0  0
 42 95  1  0  0  0  0
 43 44  1  0  0  0  0
 43 46  1  0  0  0  0
 43 96  1  1  0  0  0
 44 45  1  0  0  0  0
 44 97  1  0  0  0  0
 44 98  1  0  0  0  0
 45 99  1  0  0  0  0
 45100  1  0  0  0  0
 47 48  1  0  0  0  0
 47 49  1  0  0  0  0
 47 50  1  0  0  0  0
 51101  1  0  0  0  0
 51102  1  0  0  0  0
M  CHG  2  24   1  40   1
M  END
