CatS_184:1_D
 OpenBabel12041818463D

101105  0  0  1  0  0  0  0  0999 V2000
   43.8707   -0.3894   51.5158 C   0  0  0  0  0  0  0  0  0  0  0  0
   42.7085   -0.1455   50.5401 C   0  0  1  0  0  0  0  0  0  0  0  0
   41.7055   -1.3109   50.6172 C   0  0  0  0  0  0  0  0  0  0  0  0
   40.5889   -1.1403   49.5593 C   0  0  0  0  0  0  0  0  0  0  0  0
   40.3394    0.3061   49.1939 N   0  3  1  0  0  0  0  0  0  0  0  0
   40.5452    1.2365   50.3640 C   0  0  0  0  0  0  0  0  0  0  0  0
   42.0096    1.1948   50.8684 C   0  0  0  0  0  0  0  0  0  0  0  0
   41.0881    0.7049   47.9451 C   0  0  0  0  0  0  0  0  0  0  0  0
   41.4056   -0.4464   46.9650 C   0  0  0  0  0  0  0  0  0  0  0  0
   43.1657   -0.8816   46.9433 S   0  0  0  0  0  0  0  0  0  0  0  0
   43.3719   -1.8772   45.4620 C   0  0  0  0  0  0  0  0  0  0  0  0
   42.6557   -3.0494   45.3938 C   0  0  0  0  0  0  0  0  0  0  0  0
   42.7739   -3.8850   44.3000 C   0  0  0  0  0  0  0  0  0  0  0  0
   43.6271   -3.5151   43.2751 C   0  0  0  0  0  0  0  0  0  0  0  0
   44.3348   -2.3377   43.3458 C   0  0  0  0  0  0  0  0  0  0  0  0
   44.2235   -1.4961   44.4342 C   0  0  0  0  0  0  0  0  0  0  0  0
   45.0637   -0.2197   44.4202 C   0  0  0  0  0  0  0  0  0  0  0  0
   45.9673   -0.2290   45.4768 F   0  0  0  0  0  0  0  0  0  0  0  0
   44.2759    0.9186   44.5568 F   0  0  0  0  0  0  0  0  0  0  0  0
   45.8032   -0.0522   43.2525 F   0  0  0  0  0  0  0  0  0  0  0  0
   42.0229   -5.1267   44.2648 C   0  0  0  0  0  0  0  0  0  0  0  0
   40.7889   -5.4054   43.6307 C   0  0  0  0  0  0  0  0  0  0  0  0
   40.5909   -6.6977   43.8992 C   0  0  0  0  0  0  0  0  0  0  0  0
   41.5848   -7.2402   44.6508 N   0  0  0  0  0  0  0  0  0  0  0  0
   42.4506   -6.2249   44.8530 N   0  0  0  0  0  0  0  0  0  0  0  0
   41.7939   -8.6182   45.1134 C   0  0  0  0  0  0  0  0  0  0  0  0
   41.1938   -8.9257   46.4982 C   0  0  2  0  0  0  0  0  0  0  0  0
   39.6772   -9.2049   46.3996 C   0  0  0  0  0  0  0  0  0  0  0  0
   39.3927  -10.6489   46.0618 N   0  3  1  0  0  0  0  0  0  0  0  0
   39.0844  -10.8894   44.6069 C   0  0  0  0  0  0  0  0  0  0  0  0
   38.3408  -12.2369   44.4576 C   0  0  0  0  0  0  0  0  0  0  0  0
   38.7965  -13.2914   45.5104 C   0  0  2  0  0  0  0  0  0  0  0  0
   40.2694  -13.0222   45.9190 C   0  0  0  0  0  0  0  0  0  0  0  0
   40.4278  -11.6234   46.5722 C   0  0  0  0  0  0  0  0  0  0  0  0
   38.4656  -14.7651   45.1160 C   0  0  0  0  0  0  0  0  0  0  0  0
   39.3322  -15.2283   43.9251 C   0  0  0  0  0  0  0  0  0  0  0  0
   36.9942  -15.0013   44.7178 C   0  0  0  0  0  0  0  0  0  0  0  0
   38.7983  -15.6985   46.2976 C   0  0  0  0  0  0  0  0  0  0  0  0
   41.4268   -7.8332   47.3984 O   0  0  0  0  0  0  0  0  0  0  0  0
   39.3710   -7.4329   43.3710 C   0  0  0  0  0  0  0  0  0  0  0  0
   38.7283   -6.6516   42.2024 C   0  0  0  0  0  0  0  0  0  0  0  0
   38.5155   -5.2159   42.4915 N   0  0  0  0  0  0  0  0  0  0  0  0
   39.8239   -4.5775   42.7837 C   0  0  0  0  0  0  0  0  0  0  0  0
   37.5585   -4.4721   41.3901 S   0  0  0  0  0  0  0  0  0  0  0  0
   37.4208   -3.1014   41.7497 O   0  0  0  0  0  0  0  0  0  0  0  0
   36.3083   -5.1512   41.3650 O   0  0  0  0  0  0  0  0  0  0  0  0
   38.3095   -4.5656   39.7373 C   0  0  0  0  0  0  0  0  0  0  0  0
   41.6450   -9.7456   46.8505 H   0  0  0  0  0  0  0  0  0  0  0  0
   44.5946   -0.8901   51.0411 H   0  0  0  0  0  0  0  0  0  0  0  0
   44.2259    0.4860   51.8436 H   0  0  0  0  0  0  0  0  0  0  0  0
   43.5476   -0.9229   52.2975 H   0  0  0  0  0  0  0  0  0  0  0  0
   43.0689   -0.0944   49.6087 H   0  0  0  0  0  0  0  0  0  0  0  0
   41.2965   -1.3345   51.5295 H   0  0  0  0  0  0  0  0  0  0  0  0
   42.1911   -2.1662   50.4363 H   0  0  0  0  0  0  0  0  0  0  0  0
   39.7425   -1.5311   49.9210 H   0  0  0  0  0  0  0  0  0  0  0  0
   40.8884   -1.6105   48.7291 H   0  0  0  0  0  0  0  0  0  0  0  0
   39.4561    0.3696   48.9808 H   0  0  0  0  0  0  0  0  0  0  0  0
   39.9342    0.9660   51.1080 H   0  0  0  0  0  0  0  0  0  0  0  0
   40.3433    2.1688   50.0639 H   0  0  0  0  0  0  0  0  0  0  0  0
   42.5211    1.9390   50.4390 H   0  0  0  0  0  0  0  0  0  0  0  0
   41.9908    1.2928   51.8634 H   0  0  0  0  0  0  0  0  0  0  0  0
   41.9526    1.1238   48.2229 H   0  0  0  0  0  0  0  0  0  0  0  0
   40.4828    1.3275   47.4490 H   0  0  0  0  0  0  0  0  0  0  0  0
   41.1306   -0.1696   46.0442 H   0  0  0  0  0  0  0  0  0  0  0  0
   40.9003   -1.2526   47.2725 H   0  0  0  0  0  0  0  0  0  0  0  0
   42.0430   -3.2993   46.1435 H   0  0  0  0  0  0  0  0  0  0  0  0
   43.7299   -4.1084   42.4766 H   0  0  0  0  0  0  0  0  0  0  0  0
   44.9427   -2.0861   42.5928 H   0  0  0  0  0  0  0  0  0  0  0  0
   42.7782   -8.7902   45.1518 H   0  0  0  0  0  0  0  0  0  0  0  0
   41.3205   -9.2112   44.4621 H   0  0  0  0  0  0  0  0  0  0  0  0
   39.2846   -8.6205   45.6895 H   0  0  0  0  0  0  0  0  0  0  0  0
   39.2671   -9.0092   47.2905 H   0  0  0  0  0  0  0  0  0  0  0  0
   38.6298  -10.8513   46.5143 H   0  0  0  0  0  0  0  0  0  0  0  0
   39.9360  -10.9151   44.0834 H   0  0  0  0  0  0  0  0  0  0  0  0
   38.5075  -10.1498   44.2604 H   0  0  0  0  0  0  0  0  0  0  0  0
   38.5129  -12.5996   43.5417 H   0  0  0  0  0  0  0  0  0  0  0  0
   37.3671  -12.0637   44.6055 H   0  0  0  0  0  0  0  0  0  0  0  0
   38.2446  -13.1750   46.3361 H   0  0  0  0  0  0  0  0  0  0  0  0
   40.8488  -13.0720   45.1054 H   0  0  0  0  0  0  0  0  0  0  0  0
   40.5423  -13.7139   46.5877 H   0  0  0  0  0  0  0  0  0  0  0  0
   40.3300  -11.7126   47.5634 H   0  0  0  0  0  0  0  0  0  0  0  0
   41.3326  -11.2701   46.3348 H   0  0  0  0  0  0  0  0  0  0  0  0
   39.8879  -16.0089   44.2110 H   0  0  0  0  0  0  0  0  0  0  0  0
   38.7432  -15.4954   43.1623 H   0  0  0  0  0  0  0  0  0  0  0  0
   39.9269  -14.4802   43.6306 H   0  0  0  0  0  0  0  0  0  0  0  0
   36.6032  -15.7004   45.3162 H   0  0  0  0  0  0  0  0  0  0  0  0
   36.4780  -14.1500   44.8123 H   0  0  0  0  0  0  0  0  0  0  0  0
   36.9476  -15.3063   43.7666 H   0  0  0  0  0  0  0  0  0  0  0  0
   37.9864  -16.2350   46.5274 H   0  0  0  0  0  0  0  0  0  0  0  0
   39.5463  -16.3116   46.0436 H   0  0  0  0  0  0  0  0  0  0  0  0
   39.0781  -15.1538   47.0883 H   0  0  0  0  0  0  0  0  0  0  0  0
   40.9510   -7.0005   47.0946 H   0  0  0  0  0  0  0  0  0  0  0  0
   38.7029   -7.5355   44.1079 H   0  0  0  0  0  0  0  0  0  0  0  0
   39.6559   -8.3317   43.0380 H   0  0  0  0  0  0  0  0  0  0  0  0
   37.8440   -7.0680   41.9912 H   0  0  0  0  0  0  0  0  0  0  0  0
   39.3649   -6.7018   41.4329 H   0  0  0  0  0  0  0  0  0  0  0  0
   40.2720   -4.3764   41.9126 H   0  0  0  0  0  0  0  0  0  0  0  0
   39.6141   -3.7638   43.3258 H   0  0  0  0  0  0  0  0  0  0  0  0
   37.6995   -5.0756   39.1309 H   0  0  0  0  0  0  0  0  0  0  0  0
   38.4488   -3.6433   39.3768 H   0  0  0  0  0  0  0  0  0  0  0  0
   39.1936   -5.0294   39.7949 H   0  0  0  0  0  0  0  0  0  0  0  0
  1  2  1  0  0  0  0
  1 49  1  0  0  0  0
  1 50  1  0  0  0  0
  1 51  1  0  0  0  0
  2  3  1  0  0  0  0
  2  7  1  0  0  0  0
  2 52  1  6  0  0  0
  3  4  1  0  0  0  0
  3 53  1  0  0  0  0
  3 54  1  0  0  0  0
  4  5  1  0  0  0  0
  4 55  1  0  0  0  0
  4 56  1  0  0  0  0
  5  6  1  0  0  0  0
  5  8  1  0  0  0  0
  5 57  1  6  0  0  0
  6  7  1  0  0  0  0
  6 58  1  0  0  0  0
  6 59  1  0  0  0  0
  7 60  1  0  0  0  0
  7 61  1  0  0  0  0
  8  9  1  0  0  0  0
  8 62  1  0  0  0  0
  8 63  1  0  0  0  0
  9 10  1  0  0  0  0
  9 64  1  0  0  0  0
  9 65  1  0  0  0  0
 10 11  1  0  0  0  0
 11 12  2  0  0  0  0
 11 16  1  0  0  0  0
 12 13  1  0  0  0  0
 12 66  1  0  0  0  0
 13 14  2  0  0  0  0
 13 21  1  0  0  0  0
 14 15  1  0  0  0  0
 14 67  1  0  0  0  0
 15 16  2  0  0  0  0
 15 68  1  0  0  0  0
 16 17  1  0  0  0  0
 17 18  1  0  0  0  0
 17 19  1  0  0  0  0
 17 20  1  0  0  0  0
 21 22  1  0  0  0  0
 21 25  2  0  0  0  0
 22 23  2  0  0  0  0
 22 43  1  0  0  0  0
 23 24  1  0  0  0  0
 23 40  1  0  0  0  0
 24 25  1  0  0  0  0
 24 26  1  0  0  0  0
 26 27  1  0  0  0  0
 26 69  1  0  0  0  0
 26 70  1  0  0  0  0
 27 28  1  0  0  0  0
 27 39  1  0  0  0  0
 27 48  1  1  0  0  0
 28 29  1  0  0  0  0
 28 71  1  0  0  0  0
 28 72  1  0  0  0  0
 29 30  1  0  0  0  0
 29 34  1  0  0  0  0
 29 73  1  1  0  0  0
 30 31  1  0  0  0  0
 30 74  1  0  0  0  0
 30 75  1  0  0  0  0
 31 32  1  0  0  0  0
 31 76  1  0  0  0  0
 31 77  1  0  0  0  0
 32 33  1  0  0  0  0
 32 35  1  0  0  0  0
 32 78  1  1  0  0  0
 33 34  1  0  0  0  0
 33 79  1  0  0  0  0
 33 80  1  0  0  0  0
 34 81  1  0  0  0  0
 34 82  1  0  0  0  0
 35 36  1  0  0  0  0
 35 37  1  0  0  0  0
 35 38  1  0  0  0  0
 36 83  1  0  0  0  0
 36 84  1  0  0  0  0
 36 85  1  0  0  0  0
 37 86  1  0  0  0  0
 37 87  1  0  0  0  0
 37 88  1  0  0  0  0
 38 89  1  0  0  0  0
 38 90  1  0  0  0  0
 38 91  1  0  0  0  0
 39 92  1  0  0  0  0
 40 41  1  0  0  0  0
 40 93  1  0  0  0  0
 40 94  1  0  0  0  0
 41 42  1  0  0  0  0
 41 95  1  0  0  0  0
 41 96  1  0  0  0  0
 42 43  1  0  0  0  0
 42 44  1  0  0  0  0
 43 97  1  0  0  0  0
 43 98  1  0  0  0  0
 44 45  2  0  0  0  0
 44 46  2  0  0  0  0
 44 47  1  0  0  0  0
 47 99  1  0  0  0  0
 47100  1  0  0  0  0
 47101  1  0  0  0  0
M  CHG  2   5   1  29   1
M  END
