CatS_286:1_D
 OpenBabel12041818463D

 89 95  0  0  0  0  0  0  0  0999 V2000
   43.5825   -8.6164   47.8531 C   0  0  0  0  0  0  0  0  0  0  0  0
   42.1122   -7.6579   48.3172 S   0  0  0  0  0  0  0  0  0  0  0  0
   41.1992   -8.5508   48.9529 O   0  0  0  0  0  0  0  0  0  0  0  0
   42.5386   -6.5068   49.0434 O   0  0  0  0  0  0  0  0  0  0  0  0
   41.3800   -7.1093   46.9709 N   0  0  0  0  0  0  0  0  0  0  0  0
   40.8783   -8.1340   46.0328 C   0  0  0  0  0  0  0  0  0  0  0  0
   39.8656   -7.5537   45.0225 C   0  0  0  0  0  0  0  0  0  0  0  0
   40.3970   -6.2718   44.4122 C   0  0  0  0  0  0  0  0  0  0  0  0
   41.4250   -5.6164   44.9504 C   0  0  0  0  0  0  0  0  0  0  0  0
   41.5764   -4.4958   44.1022 C   0  0  0  0  0  0  0  0  0  0  0  0
   40.6512   -4.5462   43.1658 N   0  0  0  0  0  0  0  0  0  0  0  0
   39.8937   -5.6565   43.3141 N   0  0  0  0  0  0  0  0  0  0  0  0
   38.7444   -6.0174   42.4768 C   0  0  0  0  0  0  0  0  0  0  0  0
   37.9524   -4.8467   41.8690 C   0  0  0  0  0  0  0  0  0  0  0  0
   37.5153   -5.1348   40.4152 C   0  0  0  0  0  0  0  0  0  0  0  0
   36.1841   -5.8395   40.2825 N   0  3  0  0  0  0  0  0  0  0  0  0
   36.3412   -7.3360   40.1647 C   0  0  0  0  0  0  0  0  0  0  0  0
   36.8098   -7.7182   38.7465 C   0  0  0  0  0  0  0  0  0  0  0  0
   35.9189   -7.1778   37.7525 O   0  0  0  0  0  0  0  0  0  0  0  0
   35.8529   -5.7404   37.8061 C   0  0  0  0  0  0  0  0  0  0  0  0
   35.3245   -5.2758   39.1770 C   0  0  0  0  0  0  0  0  0  0  0  0
   42.5718   -3.4439   44.1918 C   0  0  0  0  0  0  0  0  0  0  0  0
   42.4268   -2.4597   45.1635 C   0  0  0  0  0  0  0  0  0  0  0  0
   43.3627   -1.4594   45.2939 C   0  0  0  0  0  0  0  0  0  0  0  0
   44.4360   -1.4314   44.4419 C   0  0  0  0  0  0  0  0  0  0  0  0
   44.5913   -2.3934   43.4480 C   0  0  0  0  0  0  0  0  0  0  0  0
   43.6564   -3.4145   43.3365 C   0  0  0  0  0  0  0  0  0  0  0  0
   45.7381   -2.2659   42.5838 C   0  0  0  0  0  0  0  0  0  0  0  0
   46.6539   -2.2015   41.7763 C   0  0  0  0  0  0  0  0  0  0  0  0
   47.6515   -2.1682   40.7360 C   0  0  0  0  0  0  0  0  0  0  0  0
   47.3530   -1.9701   39.3904 C   0  0  0  0  0  0  0  0  0  0  0  0
   48.3492   -2.0550   38.4464 C   0  0  0  0  0  0  0  0  0  0  0  0
   49.6518   -2.3270   38.8189 C   0  0  0  0  0  0  0  0  0  0  0  0
   49.9544   -2.4826   40.1556 C   0  0  0  0  0  0  0  0  0  0  0  0
   48.9701   -2.4056   41.1058 C   0  0  0  0  0  0  0  0  0  0  0  0
   50.7700   -2.5088   37.7984 C   0  0  0  0  0  0  0  0  0  0  0  0
   50.4973   -3.4837   36.6789 N   0  3  0  0  0  0  0  0  0  0  0  0
   50.0271   -4.8480   37.1302 C   0  0  0  0  0  0  0  0  0  0  0  0
   50.7199   -5.7774   36.1591 C   0  0  0  0  0  0  0  0  0  0  0  0
   50.5403   -7.1319   36.0060 C   0  0  0  0  0  0  0  0  0  0  0  0
   51.2855   -7.8015   35.0594 C   0  0  0  0  0  0  0  0  0  0  0  0
   52.1960   -7.1215   34.2777 C   0  0  0  0  0  0  0  0  0  0  0  0
   52.3724   -5.7646   34.4365 C   0  0  0  0  0  0  0  0  0  0  0  0
   51.6263   -5.1054   35.3845 C   0  0  0  0  0  0  0  0  0  0  0  0
   51.6705   -3.6403   35.7398 C   0  0  0  0  0  0  0  0  0  0  0  0
   45.6229   -0.1783   44.6096 Cl  0  0  0  0  0  0  0  0  0  0  0  0
   42.1471   -6.0954   46.2052 C   0  0  0  0  0  0  0  0  0  0  0  0
   43.6639   -8.6256   46.8564 H   0  0  0  0  0  0  0  0  0  0  0  0
   44.3982   -8.1991   48.2537 H   0  0  0  0  0  0  0  0  0  0  0  0
   43.4953   -9.5526   48.1935 H   0  0  0  0  0  0  0  0  0  0  0  0
   40.4345   -8.8617   46.5557 H   0  0  0  0  0  0  0  0  0  0  0  0
   41.6591   -8.4850   45.5158 H   0  0  0  0  0  0  0  0  0  0  0  0
   39.0027   -7.3646   45.4913 H   0  0  0  0  0  0  0  0  0  0  0  0
   39.7199   -8.2211   44.2922 H   0  0  0  0  0  0  0  0  0  0  0  0
   38.1152   -6.5569   43.0362 H   0  0  0  0  0  0  0  0  0  0  0  0
   39.1270   -6.5131   41.6971 H   0  0  0  0  0  0  0  0  0  0  0  0
   38.5255   -4.0273   41.8799 H   0  0  0  0  0  0  0  0  0  0  0  0
   37.1267   -4.7155   42.4178 H   0  0  0  0  0  0  0  0  0  0  0  0
   38.2159   -5.7041   39.9851 H   0  0  0  0  0  0  0  0  0  0  0  0
   37.4072   -4.2450   39.9719 H   0  0  0  0  0  0  0  0  0  0  0  0
   35.7332   -5.6929   41.0621 H   0  0  0  0  0  0  0  0  0  0  0  0
   35.4638   -7.7767   40.3543 H   0  0  0  0  0  0  0  0  0  0  0  0
   37.0269   -7.6426   40.8247 H   0  0  0  0  0  0  0  0  0  0  0  0
   36.8320   -8.7145   38.6640 H   0  0  0  0  0  0  0  0  0  0  0  0
   37.7232   -7.3396   38.5972 H   0  0  0  0  0  0  0  0  0  0  0  0
   35.2425   -5.4103   37.0861 H   0  0  0  0  0  0  0  0  0  0  0  0
   36.7718   -5.3691   37.6721 H   0  0  0  0  0  0  0  0  0  0  0  0
   35.3413   -4.2768   39.2196 H   0  0  0  0  0  0  0  0  0  0  0  0
   34.3866   -5.6028   39.2929 H   0  0  0  0  0  0  0  0  0  0  0  0
   41.6346   -2.4791   45.7735 H   0  0  0  0  0  0  0  0  0  0  0  0
   43.2610   -0.7609   46.0022 H   0  0  0  0  0  0  0  0  0  0  0  0
   43.7677   -4.1244   42.6411 H   0  0  0  0  0  0  0  0  0  0  0  0
   46.4147   -1.7663   39.1107 H   0  0  0  0  0  0  0  0  0  0  0  0
   48.1288   -1.9183   37.4806 H   0  0  0  0  0  0  0  0  0  0  0  0
   50.8997   -2.6530   40.4337 H   0  0  0  0  0  0  0  0  0  0  0  0
   49.2020   -2.5212   42.0717 H   0  0  0  0  0  0  0  0  0  0  0  0
   51.5838   -2.8222   38.2879 H   0  0  0  0  0  0  0  0  0  0  0  0
   50.8762   -1.6182   37.3563 H   0  0  0  0  0  0  0  0  0  0  0  0
   49.8257   -3.1311   36.1733 H   0  0  0  0  0  0  0  0  0  0  0  0
   49.0326   -4.9287   37.0634 H   0  0  0  0  0  0  0  0  0  0  0  0
   50.2410   -5.0447   38.0870 H   0  0  0  0  0  0  0  0  0  0  0  0
   49.8792   -7.6236   36.5728 H   0  0  0  0  0  0  0  0  0  0  0  0
   51.1652   -8.7869   34.9386 H   0  0  0  0  0  0  0  0  0  0  0  0
   52.7308   -7.6160   33.5926 H   0  0  0  0  0  0  0  0  0  0  0  0
   53.0314   -5.2677   33.8718 H   0  0  0  0  0  0  0  0  0  0  0  0
   52.5300   -3.4032   36.1927 H   0  0  0  0  0  0  0  0  0  0  0  0
   51.6195   -3.0401   34.9415 H   0  0  0  0  0  0  0  0  0  0  0  0
   43.0242   -6.4941   45.9374 H   0  0  0  0  0  0  0  0  0  0  0  0
   42.2644   -5.3004   46.8003 H   0  0  0  0  0  0  0  0  0  0  0  0
  1  2  1  0  0  0  0
  1 48  1  0  0  0  0
  1 49  1  0  0  0  0
  1 50  1  0  0  0  0
  2  3  2  0  0  0  0
  2  4  2  0  0  0  0
  2  5  1  0  0  0  0
  5  6  1  0  0  0  0
  5 47  1  0  0  0  0
  6  7  1  0  0  0  0
  6 51  1  0  0  0  0
  6 52  1  0  0  0  0
  7  8  1  0  0  0  0
  7 53  1  0  0  0  0
  7 54  1  0  0  0  0
  8  9  2  0  0  0  0
  8 12  1  0  0  0  0
  9 10  1  0  0  0  0
  9 47  1  0  0  0  0
 10 11  2  0  0  0  0
 10 22  1  0  0  0  0
 11 12  1  0  0  0  0
 12 13  1  0  0  0  0
 13 14  1  0  0  0  0
 13 55  1  0  0  0  0
 13 56  1  0  0  0  0
 14 15  1  0  0  0  0
 14 57  1  0  0  0  0
 14 58  1  0  0  0  0
 15 16  1  0  0  0  0
 15 59  1  0  0  0  0
 15 60  1  0  0  0  0
 16 17  1  0  0  0  0
 16 21  1  0  0  0  0
 16 61  1  0  0  0  0
 17 18  1  0  0  0  0
 17 62  1  0  0  0  0
 17 63  1  0  0  0  0
 18 19  1  0  0  0  0
 18 64  1  0  0  0  0
 18 65  1  0  0  0  0
 19 20  1  0  0  0  0
 20 21  1  0  0  0  0
 20 66  1  0  0  0  0
 20 67  1  0  0  0  0
 21 68  1  0  0  0  0
 21 69  1  0  0  0  0
 22 23  2  0  0  0  0
 22 27  1  0  0  0  0
 23 24  1  0  0  0  0
 23 70  1  0  0  0  0
 24 25  2  0  0  0  0
 24 71  1  0  0  0  0
 25 26  1  0  0  0  0
 25 46  1  0  0  0  0
 26 27  2  0  0  0  0
 26 28  1  0  0  0  0
 27 72  1  0  0  0  0
 28 29  3  0  0  0  0
 29 30  1  0  0  0  0
 30 31  2  0  0  0  0
 30 35  1  0  0  0  0
 31 32  1  0  0  0  0
 31 73  1  0  0  0  0
 32 33  2  0  0  0  0
 32 74  1  0  0  0  0
 33 34  1  0  0  0  0
 33 36  1  0  0  0  0
 34 35  2  0  0  0  0
 34 75  1  0  0  0  0
 35 76  1  0  0  0  0
 36 37  1  0  0  0  0
 36 77  1  0  0  0  0
 36 78  1  0  0  0  0
 37 38  1  0  0  0  0
 37 45  1  0  0  0  0
 37 79  1  0  0  0  0
 38 39  1  0  0  0  0
 38 80  1  0  0  0  0
 38 81  1  0  0  0  0
 39 40  2  0  0  0  0
 39 44  1  0  0  0  0
 40 41  1  0  0  0  0
 40 82  1  0  0  0  0
 41 42  2  0  0  0  0
 41 83  1  0  0  0  0
 42 43  1  0  0  0  0
 42 84  1  0  0  0  0
 43 44  2  0  0  0  0
 43 85  1  0  0  0  0
 44 45  1  0  0  0  0
 45 86  1  0  0  0  0
 45 87  1  0  0  0  0
 47 88  1  0  0  0  0
 47 89  1  0  0  0  0
M  CHG  2  16   1  37   1
M  END
