CatS_158:1_D
 OpenBabel12041818463D

 95100  0  0  1  0  0  0  0  0999 V2000
   40.2029    0.7836   47.7643 C   0  0  0  0  0  0  0  0  0  0  0  0
   41.8666    0.6015   48.4630 S   0  0  0  0  0  0  0  0  0  0  0  0
   42.3443    1.8965   48.8217 O   0  0  0  0  0  0  0  0  0  0  0  0
   41.7965   -0.3887   49.4874 O   0  0  0  0  0  0  0  0  0  0  0  0
   42.8498    0.0221   47.2991 N   0  0  0  0  0  0  0  0  0  0  0  0
   43.0922    0.9209   46.1480 C   0  0  0  0  0  0  0  0  0  0  0  0
   44.3319    0.4928   45.3248 C   0  0  0  0  0  0  0  0  0  0  0  0
   44.2742   -0.9907   45.0127 C   0  0  0  0  0  0  0  0  0  0  0  0
   43.4605   -1.8100   45.6820 C   0  0  0  0  0  0  0  0  0  0  0  0
   43.6854   -3.0686   45.0815 C   0  0  0  0  0  0  0  0  0  0  0  0
   44.5996   -2.9190   44.1491 N   0  0  0  0  0  0  0  0  0  0  0  0
   44.9999   -1.6307   44.0605 N   0  0  0  0  0  0  0  0  0  0  0  0
   45.8981   -1.1032   43.0203 C   0  0  0  0  0  0  0  0  0  0  0  0
   45.7233   -1.6075   41.5678 C   0  0  2  0  0  0  0  0  0  0  0  0
   46.4200   -0.6841   40.5470 C   0  0  0  0  0  0  0  0  0  0  0  0
   47.4034   -1.3716   39.6392 N   0  3  2  0  0  0  0  0  0  0  0  0
   47.0491   -2.8254   39.4681 C   0  0  0  0  0  0  0  0  0  0  0  0
   47.8920   -3.5045   38.3640 C   0  0  0  0  0  0  0  0  0  0  0  0
   49.2622   -2.8165   38.1474 C   0  0  1  0  0  0  0  0  0  0  0  0
   49.7896   -2.2537   39.4835 C   0  0  0  0  0  0  0  0  0  0  0  0
   48.8467   -1.1607   40.0399 C   0  0  0  0  0  0  0  0  0  0  0  0
   50.2567   -3.7555   37.4829 C   0  0  0  0  0  0  0  0  0  0  0  0
   51.0783   -3.2440   36.5057 C   0  0  0  0  0  0  0  0  0  0  0  0
   51.9809   -4.0708   35.8918 C   0  0  0  0  0  0  0  0  0  0  0  0
   52.0319   -5.3847   36.2736 C   0  0  0  0  0  0  0  0  0  0  0  0
   51.1827   -5.8288   37.2576 C   0  0  0  0  0  0  0  0  0  0  0  0
   50.2860   -5.0427   37.8842 N   0  0  0  0  0  0  0  0  0  0  0  0
   44.3282   -1.7283   41.2502 O   0  0  0  0  0  0  0  0  0  0  0  0
   43.0550   -4.3473   45.3576 C   0  0  0  0  0  0  0  0  0  0  0  0
   43.3296   -5.0514   46.5163 C   0  0  0  0  0  0  0  0  0  0  0  0
   42.7117   -6.2540   46.7626 C   0  0  0  0  0  0  0  0  0  0  0  0
   41.8140   -6.8037   45.8695 C   0  0  0  0  0  0  0  0  0  0  0  0
   41.5389   -6.0920   44.7073 C   0  0  0  0  0  0  0  0  0  0  0  0
   42.1492   -4.8827   44.4630 C   0  0  0  0  0  0  0  0  0  0  0  0
   40.4207   -6.6945   43.4319 S   0  0  0  0  0  0  0  0  0  0  0  0
   39.0463   -5.5483   43.1408 C   0  0  0  0  0  0  0  0  0  0  0  0
   38.9748   -5.3059   41.6202 C   0  0  0  0  0  0  0  0  0  0  0  0
   37.7805   -5.9276   40.9387 N   0  3  2  0  0  0  0  0  0  0  0  0
   37.9630   -7.4001   40.6198 C   0  0  0  0  0  0  0  0  0  0  0  0
   37.1347   -7.8676   39.4022 C   0  0  0  0  0  0  0  0  0  0  0  0
   35.7875   -7.1276   39.3762 C   0  0  0  0  0  0  0  0  0  0  0  0
   36.0261   -5.6240   39.1133 C   0  0  0  0  0  0  0  0  0  0  0  0
   37.3497   -5.1171   39.7408 C   0  0  0  0  0  0  0  0  0  0  0  0
   34.9519   -4.8942   39.6134 F   0  0  0  0  0  0  0  0  0  0  0  0
   36.0549   -5.3935   37.7413 F   0  0  0  0  0  0  0  0  0  0  0  0
   41.2321   -8.1482   46.3057 C   0  0  0  0  0  0  0  0  0  0  0  0
   41.7084   -9.1690   45.4907 F   0  0  0  0  0  0  0  0  0  0  0  0
   41.5313   -8.4755   47.6227 F   0  0  0  0  0  0  0  0  0  0  0  0
   39.8438   -8.1827   46.2101 F   0  0  0  0  0  0  0  0  0  0  0  0
   42.5360   -1.3362   46.7938 C   0  0  0  0  0  0  0  0  0  0  0  0
   46.1583   -2.5060   41.5081 H   0  0  0  0  0  0  0  0  0  0  0  0
   40.2182    0.4935   46.8074 H   0  0  0  0  0  0  0  0  0  0  0  0
   39.5573    0.2178   48.2774 H   0  0  0  0  0  0  0  0  0  0  0  0
   39.9159    1.7396   47.8230 H   0  0  0  0  0  0  0  0  0  0  0  0
   43.2331    1.8509   46.4875 H   0  0  0  0  0  0  0  0  0  0  0  0
   42.2942    0.8733   45.5473 H   0  0  0  0  0  0  0  0  0  0  0  0
   45.1608    0.6898   45.8482 H   0  0  0  0  0  0  0  0  0  0  0  0
   44.3417    1.0034   44.4649 H   0  0  0  0  0  0  0  0  0  0  0  0
   46.8339   -1.3190   43.2995 H   0  0  0  0  0  0  0  0  0  0  0  0
   45.6688   -0.1312   42.9694 H   0  0  0  0  0  0  0  0  0  0  0  0
   46.9059    0.0291   41.0522 H   0  0  0  0  0  0  0  0  0  0  0  0
   45.6981   -0.3249   39.9555 H   0  0  0  0  0  0  0  0  0  0  0  0
   47.2998   -0.9947   38.8156 H   0  0  0  0  0  0  0  0  0  0  0  0
   46.0810   -2.8965   39.2275 H   0  0  0  0  0  0  0  0  0  0  0  0
   47.2416   -3.2923   40.3311 H   0  0  0  0  0  0  0  0  0  0  0  0
   47.3788   -3.4776   37.5061 H   0  0  0  0  0  0  0  0  0  0  0  0
   48.0709   -4.4438   38.6567 H   0  0  0  0  0  0  0  0  0  0  0  0
   49.1397   -2.0477   37.5197 H   0  0  0  0  0  0  0  0  0  0  0  0
   50.6980   -1.8617   39.3382 H   0  0  0  0  0  0  0  0  0  0  0  0
   49.8333   -3.0007   40.1468 H   0  0  0  0  0  0  0  0  0  0  0  0
   48.9061   -1.1620   41.0381 H   0  0  0  0  0  0  0  0  0  0  0  0
   49.1411   -0.2863   39.6542 H   0  0  0  0  0  0  0  0  0  0  0  0
   51.0175   -2.2801   36.2467 H   0  0  0  0  0  0  0  0  0  0  0  0
   52.5900   -3.7222   35.1794 H   0  0  0  0  0  0  0  0  0  0  0  0
   52.6791   -6.0128   35.8417 H   0  0  0  0  0  0  0  0  0  0  0  0
   51.2331   -6.7913   37.5242 H   0  0  0  0  0  0  0  0  0  0  0  0
   43.7651   -1.1398   41.8407 H   0  0  0  0  0  0  0  0  0  0  0  0
   43.9818   -4.6830   47.1789 H   0  0  0  0  0  0  0  0  0  0  0  0
   42.9175   -6.7432   47.6100 H   0  0  0  0  0  0  0  0  0  0  0  0
   41.9332   -4.3836   43.6239 H   0  0  0  0  0  0  0  0  0  0  0  0
   39.2085   -4.6864   43.6212 H   0  0  0  0  0  0  0  0  0  0  0  0
   38.1865   -5.9292   43.4808 H   0  0  0  0  0  0  0  0  0  0  0  0
   39.8037   -5.6799   41.2043 H   0  0  0  0  0  0  0  0  0  0  0  0
   38.8869   -4.3176   41.4956 H   0  0  0  0  0  0  0  0  0  0  0  0
   37.0915   -5.8650   41.5313 H   0  0  0  0  0  0  0  0  0  0  0  0
   37.6886   -7.9359   41.4183 H   0  0  0  0  0  0  0  0  0  0  0  0
   38.9268   -7.5368   40.3913 H   0  0  0  0  0  0  0  0  0  0  0  0
   36.9745   -8.8526   39.4658 H   0  0  0  0  0  0  0  0  0  0  0  0
   37.6382   -7.6653   38.5622 H   0  0  0  0  0  0  0  0  0  0  0  0
   35.3247   -7.2450   40.2549 H   0  0  0  0  0  0  0  0  0  0  0  0
   35.2163   -7.5041   38.6468 H   0  0  0  0  0  0  0  0  0  0  0  0
   38.0704   -5.1598   39.0488 H   0  0  0  0  0  0  0  0  0  0  0  0
   37.1923   -4.1804   40.0535 H   0  0  0  0  0  0  0  0  0  0  0  0
   41.5978   -1.3358   46.4477 H   0  0  0  0  0  0  0  0  0  0  0  0
   42.6599   -1.9663   47.5604 H   0  0  0  0  0  0  0  0  0  0  0  0
  1  2  1  0  0  0  0
  1 52  1  0  0  0  0
  1 53  1  0  0  0  0
  1 54  1  0  0  0  0
  2  3  2  0  0  0  0
  2  4  2  0  0  0  0
  2  5  1  0  0  0  0
  5  6  1  0  0  0  0
  5 50  1  0  0  0  0
  6  7  1  0  0  0  0
  6 55  1  0  0  0  0
  6 56  1  0  0  0  0
  7  8  1  0  0  0  0
  7 57  1  0  0  0  0
  7 58  1  0  0  0  0
  8  9  2  0  0  0  0
  8 12  1  0  0  0  0
  9 10  1  0  0  0  0
  9 50  1  0  0  0  0
 10 11  2  0  0  0  0
 10 29  1  0  0  0  0
 11 12  1  0  0  0  0
 12 13  1  0  0  0  0
 13 14  1  0  0  0  0
 13 59  1  0  0  0  0
 13 60  1  0  0  0  0
 14 15  1  0  0  0  0
 14 28  1  0  0  0  0
 14 51  1  6  0  0  0
 15 16  1  0  0  0  0
 15 61  1  0  0  0  0
 15 62  1  0  0  0  0
 16 17  1  0  0  0  0
 16 21  1  0  0  0  0
 16 63  1  6  0  0  0
 17 18  1  0  0  0  0
 17 64  1  0  0  0  0
 17 65  1  0  0  0  0
 18 19  1  0  0  0  0
 18 66  1  0  0  0  0
 18 67  1  0  0  0  0
 19 20  1  0  0  0  0
 19 22  1  0  0  0  0
 19 68  1  6  0  0  0
 20 21  1  0  0  0  0
 20 69  1  0  0  0  0
 20 70  1  0  0  0  0
 21 71  1  0  0  0  0
 21 72  1  0  0  0  0
 22 23  2  0  0  0  0
 22 27  1  0  0  0  0
 23 24  1  0  0  0  0
 23 73  1  0  0  0  0
 24 25  2  0  0  0  0
 24 74  1  0  0  0  0
 25 26  1  0  0  0  0
 25 75  1  0  0  0  0
 26 27  2  0  0  0  0
 26 76  1  0  0  0  0
 28 77  1  0  0  0  0
 29 30  2  0  0  0  0
 29 34  1  0  0  0  0
 30 31  1  0  0  0  0
 30 78  1  0  0  0  0
 31 32  2  0  0  0  0
 31 79  1  0  0  0  0
 32 33  1  0  0  0  0
 32 46  1  0  0  0  0
 33 34  2  0  0  0  0
 33 35  1  0  0  0  0
 34 80  1  0  0  0  0
 35 36  1  0  0  0  0
 36 37  1  0  0  0  0
 36 81  1  0  0  0  0
 36 82  1  0  0  0  0
 37 38  1  0  0  0  0
 37 83  1  0  0  0  0
 37 84  1  0  0  0  0
 38 39  1  0  0  0  0
 38 43  1  0  0  0  0
 38 85  1  1  0  0  0
 39 40  1  0  0  0  0
 39 86  1  0  0  0  0
 39 87  1  0  0  0  0
 40 41  1  0  0  0  0
 40 88  1  0  0  0  0
 40 89  1  0  0  0  0
 41 42  1  0  0  0  0
 41 90  1  0  0  0  0
 41 91  1  0  0  0  0
 42 43  1  0  0  0  0
 42 44  1  0  0  0  0
 42 45  1  0  0  0  0
 43 92  1  0  0  0  0
 43 93  1  0  0  0  0
 46 47  1  0  0  0  0
 46 48  1  0  0  0  0
 46 49  1  0  0  0  0
 50 94  1  0  0  0  0
 50 95  1  0  0  0  0
M  CHG  2  16   1  38   1
M  END
