CatS_181:1_D
 OpenBabel12041818463D

 82 87  0  0  0  0  0  0  0  0999 V2000
   43.0304   -7.6940   48.7457 C   0  0  0  0  0  0  0  0  0  0  0  0
   43.3436   -8.4393   47.1255 S   0  0  0  0  0  0  0  0  0  0  0  0
   42.8809   -9.7881   47.1730 O   0  0  0  0  0  0  0  0  0  0  0  0
   44.7130   -8.2046   46.7962 O   0  0  0  0  0  0  0  0  0  0  0  0
   42.4065   -7.6329   46.0649 N   0  0  0  0  0  0  0  0  0  0  0  0
   40.9464   -7.7968   46.2202 C   0  0  0  0  0  0  0  0  0  0  0  0
   40.1891   -7.4043   44.9346 C   0  0  0  0  0  0  0  0  0  0  0  0
   40.6359   -6.0528   44.4047 C   0  0  0  0  0  0  0  0  0  0  0  0
   41.7957   -5.5272   44.8078 C   0  0  0  0  0  0  0  0  0  0  0  0
   41.8757   -4.3092   44.1002 C   0  0  0  0  0  0  0  0  0  0  0  0
   40.7909   -4.1915   43.3618 N   0  0  0  0  0  0  0  0  0  0  0  0
   39.9706   -5.2611   43.5164 N   0  0  0  0  0  0  0  0  0  0  0  0
   38.7013   -5.4298   42.7787 C   0  0  0  0  0  0  0  0  0  0  0  0
   38.6656   -6.0267   41.3508 C   0  0  0  0  0  0  0  0  0  0  0  0
   37.6420   -5.2798   40.4609 C   0  0  0  0  0  0  0  0  0  0  0  0
   36.2867   -5.9404   40.3833 N   0  3  0  0  0  0  0  0  0  0  0  0
   36.3984   -7.4328   40.1967 C   0  0  0  0  0  0  0  0  0  0  0  0
   36.7866   -7.7511   38.7404 C   0  0  0  0  0  0  0  0  0  0  0  0
   35.8463   -7.1521   37.8297 O   0  0  0  0  0  0  0  0  0  0  0  0
   35.8031   -5.7161   37.9496 C   0  0  0  0  0  0  0  0  0  0  0  0
   35.3722   -5.2993   39.3707 C   0  0  0  0  0  0  0  0  0  0  0  0
   42.9296   -3.3080   44.1265 C   0  0  0  0  0  0  0  0  0  0  0  0
   42.9206   -2.3432   45.1265 C   0  0  0  0  0  0  0  0  0  0  0  0
   43.9166   -1.3960   45.1995 C   0  0  0  0  0  0  0  0  0  0  0  0
   44.9342   -1.3932   44.2778 C   0  0  0  0  0  0  0  0  0  0  0  0
   44.9533   -2.3417   43.2576 C   0  0  0  0  0  0  0  0  0  0  0  0
   43.9455   -3.2997   43.1898 C   0  0  0  0  0  0  0  0  0  0  0  0
   46.0388   -2.2523   42.3124 C   0  0  0  0  0  0  0  0  0  0  0  0
   46.9013   -2.2553   41.4465 C   0  0  0  0  0  0  0  0  0  0  0  0
   47.8479   -2.3414   40.3631 C   0  0  0  0  0  0  0  0  0  0  0  0
   47.3595   -2.1684   39.0738 C   0  0  0  0  0  0  0  0  0  0  0  0
   48.2010   -2.2660   37.9989 C   0  0  0  0  0  0  0  0  0  0  0  0
   49.5411   -2.5391   38.1823 C   0  0  0  0  0  0  0  0  0  0  0  0
   50.0400   -2.7105   39.4644 C   0  0  0  0  0  0  0  0  0  0  0  0
   49.2007   -2.6085   40.5493 C   0  0  0  0  0  0  0  0  0  0  0  0
   51.5105   -3.0235   39.7070 C   0  0  0  0  0  0  0  0  0  0  0  0
   51.9795   -4.3663   39.1051 C   0  0  0  0  0  0  0  0  0  0  0  0
   52.2361   -4.2779   37.6215 N   0  3  0  0  0  0  0  0  0  0  0  0
   51.0378   -4.0501   36.7355 C   0  0  0  0  0  0  0  0  0  0  0  0
   50.4192   -2.6513   36.9424 C   0  0  0  0  0  0  0  0  0  0  0  0
   46.2024   -0.2001   44.3852 Cl  0  0  0  0  0  0  0  0  0  0  0  0
   42.7155   -6.2038   45.8173 C   0  0  0  0  0  0  0  0  0  0  0  0
   42.3600   -6.9592   48.6420 H   0  0  0  0  0  0  0  0  0  0  0  0
   42.6761   -8.3869   49.3735 H   0  0  0  0  0  0  0  0  0  0  0  0
   43.8823   -7.3240   49.1164 H   0  0  0  0  0  0  0  0  0  0  0  0
   40.6322   -7.2193   46.9737 H   0  0  0  0  0  0  0  0  0  0  0  0
   40.7591   -8.7607   46.4093 H   0  0  0  0  0  0  0  0  0  0  0  0
   39.2095   -7.3690   45.1325 H   0  0  0  0  0  0  0  0  0  0  0  0
   40.3883   -8.0913   44.2355 H   0  0  0  0  0  0  0  0  0  0  0  0
   38.2872   -4.5217   42.7172 H   0  0  0  0  0  0  0  0  0  0  0  0
   38.2351   -6.1337   43.3145 H   0  0  0  0  0  0  0  0  0  0  0  0
   38.4118   -6.9925   41.4051 H   0  0  0  0  0  0  0  0  0  0  0  0
   39.5727   -5.9272   40.9420 H   0  0  0  0  0  0  0  0  0  0  0  0
   38.0161   -5.2176   39.5357 H   0  0  0  0  0  0  0  0  0  0  0  0
   37.4983   -4.3837   40.8809 H   0  0  0  0  0  0  0  0  0  0  0  0
   35.8811   -5.8270   41.1903 H   0  0  0  0  0  0  0  0  0  0  0  0
   35.5207   -7.8619   40.4100 H   0  0  0  0  0  0  0  0  0  0  0  0
   37.1035   -7.7894   40.8096 H   0  0  0  0  0  0  0  0  0  0  0  0
   36.7921   -8.7423   38.6082 H   0  0  0  0  0  0  0  0  0  0  0  0
   37.6964   -7.3784   38.5579 H   0  0  0  0  0  0  0  0  0  0  0  0
   35.1514   -5.3495   37.2856 H   0  0  0  0  0  0  0  0  0  0  0  0
   36.7174   -5.3517   37.7728 H   0  0  0  0  0  0  0  0  0  0  0  0
   35.4215   -4.3043   39.4580 H   0  0  0  0  0  0  0  0  0  0  0  0
   34.4326   -5.6001   39.5337 H   0  0  0  0  0  0  0  0  0  0  0  0
   42.1821   -2.3369   45.8008 H   0  0  0  0  0  0  0  0  0  0  0  0
   43.8992   -0.7085   45.9254 H   0  0  0  0  0  0  0  0  0  0  0  0
   43.9569   -3.9843   42.4610 H   0  0  0  0  0  0  0  0  0  0  0  0
   46.3895   -1.9717   38.9308 H   0  0  0  0  0  0  0  0  0  0  0  0
   47.8422   -2.1386   37.0742 H   0  0  0  0  0  0  0  0  0  0  0  0
   49.5634   -2.7266   41.4735 H   0  0  0  0  0  0  0  0  0  0  0  0
   51.6690   -3.0469   40.6941 H   0  0  0  0  0  0  0  0  0  0  0  0
   52.0359   -2.3059   39.2498 H   0  0  0  0  0  0  0  0  0  0  0  0
   51.2751   -5.0566   39.2704 H   0  0  0  0  0  0  0  0  0  0  0  0
   52.8426   -4.6113   39.5467 H   0  0  0  0  0  0  0  0  0  0  0  0
   52.6422   -5.0490   37.3552 H   0  0  0  0  0  0  0  0  0  0  0  0
   52.8590   -3.6346   37.4597 H   0  0  0  0  0  0  0  0  0  0  0  0
   50.3474   -4.7440   36.9400 H   0  0  0  0  0  0  0  0  0  0  0  0
   51.3419   -4.1129   35.7849 H   0  0  0  0  0  0  0  0  0  0  0  0
   51.1609   -1.9850   37.0194 H   0  0  0  0  0  0  0  0  0  0  0  0
   49.8292   -2.4779   36.1539 H   0  0  0  0  0  0  0  0  0  0  0  0
   43.6550   -6.1392   45.4808 H   0  0  0  0  0  0  0  0  0  0  0  0
   42.5822   -5.7282   46.6868 H   0  0  0  0  0  0  0  0  0  0  0  0
  1  2  1  0  0  0  0
  1 43  1  0  0  0  0
  1 44  1  0  0  0  0
  1 45  1  0  0  0  0
  2  3  2  0  0  0  0
  2  4  2  0  0  0  0
  2  5  1  0  0  0  0
  5  6  1  0  0  0  0
  5 42  1  0  0  0  0
  6  7  1  0  0  0  0
  6 46  1  0  0  0  0
  6 47  1  0  0  0  0
  7  8  1  0  0  0  0
  7 48  1  0  0  0  0
  7 49  1  0  0  0  0
  8  9  2  0  0  0  0
  8 12  1  0  0  0  0
  9 10  1  0  0  0  0
  9 42  1  0  0  0  0
 10 11  2  0  0  0  0
 10 22  1  0  0  0  0
 11 12  1  0  0  0  0
 12 13  1  0  0  0  0
 13 14  1  0  0  0  0
 13 50  1  0  0  0  0
 13 51  1  0  0  0  0
 14 15  1  0  0  0  0
 14 52  1  0  0  0  0
 14 53  1  0  0  0  0
 15 16  1  0  0  0  0
 15 54  1  0  0  0  0
 15 55  1  0  0  0  0
 16 17  1  0  0  0  0
 16 21  1  0  0  0  0
 16 56  1  0  0  0  0
 17 18  1  0  0  0  0
 17 57  1  0  0  0  0
 17 58  1  0  0  0  0
 18 19  1  0  0  0  0
 18 59  1  0  0  0  0
 18 60  1  0  0  0  0
 19 20  1  0  0  0  0
 20 21  1  0  0  0  0
 20 61  1  0  0  0  0
 20 62  1  0  0  0  0
 21 63  1  0  0  0  0
 21 64  1  0  0  0  0
 22 23  2  0  0  0  0
 22 27  1  0  0  0  0
 23 24  1  0  0  0  0
 23 65  1  0  0  0  0
 24 25  2  0  0  0  0
 24 66  1  0  0  0  0
 25 26  1  0  0  0  0
 25 41  1  0  0  0  0
 26 27  2  0  0  0  0
 26 28  1  0  0  0  0
 27 67  1  0  0  0  0
 28 29  3  0  0  0  0
 29 30  1  0  0  0  0
 30 31  2  0  0  0  0
 30 35  1  0  0  0  0
 31 32  1  0  0  0  0
 31 68  1  0  0  0  0
 32 33  2  0  0  0  0
 32 69  1  0  0  0  0
 33 34  1  0  0  0  0
 33 40  1  0  0  0  0
 34 35  2  0  0  0  0
 34 36  1  0  0  0  0
 35 70  1  0  0  0  0
 36 37  1  0  0  0  0
 36 71  1  0  0  0  0
 36 72  1  0  0  0  0
 37 38  1  0  0  0  0
 37 73  1  0  0  0  0
 37 74  1  0  0  0  0
 38 39  1  0  0  0  0
 38 75  1  0  0  0  0
 38 76  1  0  0  0  0
 39 40  1  0  0  0  0
 39 77  1  0  0  0  0
 39 78  1  0  0  0  0
 40 79  1  0  0  0  0
 40 80  1  0  0  0  0
 42 81  1  0  0  0  0
 42 82  1  0  0  0  0
M  CHG  2  16   1  38   1
M  END
