CatS_455:1_D
 OpenBabel12041818463D

 79 83  0  0  0  0  0  0  0  0999 V2000
   50.5233   -3.1108   36.7983 C   0  0  0  0  0  0  0  0  0  0  0  0
   49.9745   -2.5230   38.0689 N   0  3  0  0  0  0  0  0  0  0  0  0
   48.4968   -2.2689   37.9604 C   0  0  0  0  0  0  0  0  0  0  0  0
   50.3256   -3.3325   39.2915 C   0  0  0  0  0  0  0  0  0  0  0  0
   50.0018   -2.6252   40.6002 C   0  0  0  0  0  0  0  0  0  0  0  0
   48.7675   -2.7738   41.1823 C   0  0  0  0  0  0  0  0  0  0  0  0
   48.4716   -2.1054   42.3666 C   0  0  0  0  0  0  0  0  0  0  0  0
   49.4349   -1.2961   42.9598 C   0  0  0  0  0  0  0  0  0  0  0  0
   50.6679   -1.1602   42.3781 C   0  0  0  0  0  0  0  0  0  0  0  0
   50.9524   -1.8207   41.2003 C   0  0  0  0  0  0  0  0  0  0  0  0
   52.5178   -1.6348   40.4660 Cl  0  0  0  0  0  0  0  0  0  0  0  0
   47.1776   -2.2226   42.9878 C   0  0  0  0  0  0  0  0  0  0  0  0
   46.0987   -2.3178   43.5499 C   0  0  0  0  0  0  0  0  0  0  0  0
   44.8512   -2.4266   44.2617 C   0  0  0  0  0  0  0  0  0  0  0  0
   43.8829   -3.3593   43.9038 C   0  0  0  0  0  0  0  0  0  0  0  0
   42.6969   -3.4437   44.6072 C   0  0  0  0  0  0  0  0  0  0  0  0
   42.4885   -2.5727   45.6697 C   0  0  0  0  0  0  0  0  0  0  0  0
   43.4425   -1.6470   46.0290 C   0  0  0  0  0  0  0  0  0  0  0  0
   44.6226   -1.5692   45.3339 C   0  0  0  0  0  0  0  0  0  0  0  0
   45.8246   -0.3979   45.7924 Cl  0  0  0  0  0  0  0  0  0  0  0  0
   41.6988   -4.4327   44.2256 C   0  0  0  0  0  0  0  0  0  0  0  0
   41.4820   -5.7328   44.7441 C   0  0  0  0  0  0  0  0  0  0  0  0
   40.4580   -6.1947   44.0205 C   0  0  0  0  0  0  0  0  0  0  0  0
   40.0275   -5.3014   43.0940 N   0  0  0  0  0  0  0  0  0  0  0  0
   40.8245   -4.2221   43.2643 N   0  0  0  0  0  0  0  0  0  0  0  0
   39.0407   -5.4553   42.0161 C   0  0  0  0  0  0  0  0  0  0  0  0
   38.0251   -4.3048   41.9097 C   0  0  0  0  0  0  0  0  0  0  0  0
   36.6475   -4.8043   41.4214 C   0  0  0  0  0  0  0  0  0  0  0  0
   36.7042   -5.5912   40.1320 N   0  3  0  0  0  0  0  0  0  0  0  0
   35.7753   -5.0290   39.0831 C   0  0  0  0  0  0  0  0  0  0  0  0
   36.0394   -5.6333   37.6915 C   0  0  0  0  0  0  0  0  0  0  0  0
   35.7087   -7.4129   37.7322 S   0  0  0  0  0  0  0  0  0  0  0  0
   36.8218   -7.8902   39.0788 C   0  0  0  0  0  0  0  0  0  0  0  0
   36.5176   -7.0732   40.3501 C   0  0  0  0  0  0  0  0  0  0  0  0
   39.8780   -7.5845   44.2231 C   0  0  0  0  0  0  0  0  0  0  0  0
   40.1812   -8.1254   45.6352 C   0  0  0  0  0  0  0  0  0  0  0  0
   41.5623   -7.8667   46.0929 N   0  0  0  0  0  0  0  0  0  0  0  0
   42.1772   -6.5397   45.8354 C   0  0  0  0  0  0  0  0  0  0  0  0
   42.2184   -8.8387   46.7761 C   0  0  0  0  0  0  0  0  0  0  0  0
   41.7582   -9.9807   46.8800 O   0  0  0  0  0  0  0  0  0  0  0  0
   43.3942   -8.5337   47.3623 N   0  0  0  0  0  0  0  0  0  0  0  0
   51.1726   -2.4658   36.3951 H   0  0  0  0  0  0  0  0  0  0  0  0
   50.9863   -3.9743   36.9979 H   0  0  0  0  0  0  0  0  0  0  0  0
   49.7759   -3.2830   36.1567 H   0  0  0  0  0  0  0  0  0  0  0  0
   50.3671   -1.7064   38.1752 H   0  0  0  0  0  0  0  0  0  0  0  0
   48.3294   -1.2856   38.0318 H   0  0  0  0  0  0  0  0  0  0  0  0
   48.1600   -2.6049   37.0808 H   0  0  0  0  0  0  0  0  0  0  0  0
   48.0180   -2.7473   38.6965 H   0  0  0  0  0  0  0  0  0  0  0  0
   51.3053   -3.5321   39.2704 H   0  0  0  0  0  0  0  0  0  0  0  0
   49.7715   -4.1645   39.2628 H   0  0  0  0  0  0  0  0  0  0  0  0
   48.0809   -3.3624   40.7554 H   0  0  0  0  0  0  0  0  0  0  0  0
   49.2276   -0.8136   43.8108 H   0  0  0  0  0  0  0  0  0  0  0  0
   51.3619   -0.5822   42.8071 H   0  0  0  0  0  0  0  0  0  0  0  0
   44.0467   -3.9732   43.1316 H   0  0  0  0  0  0  0  0  0  0  0  0
   41.6310   -2.6189   46.1822 H   0  0  0  0  0  0  0  0  0  0  0  0
   43.2748   -1.0304   46.7982 H   0  0  0  0  0  0  0  0  0  0  0  0
   38.5376   -6.3056   42.1709 H   0  0  0  0  0  0  0  0  0  0  0  0
   39.5554   -5.4578   41.1587 H   0  0  0  0  0  0  0  0  0  0  0  0
   38.3721   -3.6224   41.2664 H   0  0  0  0  0  0  0  0  0  0  0  0
   37.9071   -3.9074   42.8197 H   0  0  0  0  0  0  0  0  0  0  0  0
   36.0541   -4.0113   41.2835 H   0  0  0  0  0  0  0  0  0  0  0  0
   36.2978   -5.4244   42.1236 H   0  0  0  0  0  0  0  0  0  0  0  0
   37.5505   -5.4981   39.8094 H   0  0  0  0  0  0  0  0  0  0  0  0
   35.9014   -4.0381   39.0363 H   0  0  0  0  0  0  0  0  0  0  0  0
   34.8386   -5.2610   39.3454 H   0  0  0  0  0  0  0  0  0  0  0  0
   36.9924   -5.4747   37.4331 H   0  0  0  0  0  0  0  0  0  0  0  0
   35.4379   -5.1994   37.0205 H   0  0  0  0  0  0  0  0  0  0  0  0
   37.7678   -7.7269   38.7987 H   0  0  0  0  0  0  0  0  0  0  0  0
   36.6859   -8.8602   39.2804 H   0  0  0  0  0  0  0  0  0  0  0  0
   35.5718   -7.2432   40.6268 H   0  0  0  0  0  0  0  0  0  0  0  0
   37.1591   -7.3625   41.0608 H   0  0  0  0  0  0  0  0  0  0  0  0
   40.2714   -8.2043   43.5440 H   0  0  0  0  0  0  0  0  0  0  0  0
   38.8852   -7.5277   44.1176 H   0  0  0  0  0  0  0  0  0  0  0  0
   40.0270   -9.1135   45.6351 H   0  0  0  0  0  0  0  0  0  0  0  0
   39.5731   -7.6440   46.2664 H   0  0  0  0  0  0  0  0  0  0  0  0
   42.1532   -6.0098   46.6831 H   0  0  0  0  0  0  0  0  0  0  0  0
   43.1093   -6.7121   45.5168 H   0  0  0  0  0  0  0  0  0  0  0  0
   43.7184   -7.7189   47.3318 H   0  0  0  0  0  0  0  0  0  0  0  0
   43.8384   -9.1598   47.7924 H   0  0  0  0  0  0  0  0  0  0  0  0
  1  2  1  0  0  0  0
  1 42  1  0  0  0  0
  1 43  1  0  0  0  0
  1 44  1  0  0  0  0
  2  3  1  0  0  0  0
  2  4  1  0  0  0  0
  2 45  1  0  0  0  0
  3 46  1  0  0  0  0
  3 47  1  0  0  0  0
  3 48  1  0  0  0  0
  4  5  1  0  0  0  0
  4 49  1  0  0  0  0
  4 50  1  0  0  0  0
  5  6  2  0  0  0  0
  5 10  1  0  0  0  0
  6  7  1  0  0  0  0
  6 51  1  0  0  0  0
  7  8  2  0  0  0  0
  7 12  1  0  0  0  0
  8  9  1  0  0  0  0
  8 52  1  0  0  0  0
  9 10  2  0  0  0  0
  9 53  1  0  0  0  0
 10 11  1  0  0  0  0
 12 13  3  0  0  0  0
 13 14  1  0  0  0  0
 14 15  2  0  0  0  0
 14 19  1  0  0  0  0
 15 16  1  0  0  0  0
 15 54  1  0  0  0  0
 16 17  2  0  0  0  0
 16 21  1  0  0  0  0
 17 18  1  0  0  0  0
 17 55  1  0  0  0  0
 18 19  2  0  0  0  0
 18 56  1  0  0  0  0
 19 20  1  0  0  0  0
 21 22  1  0  0  0  0
 21 25  2  0  0  0  0
 22 23  2  0  0  0  0
 22 38  1  0  0  0  0
 23 24  1  0  0  0  0
 23 35  1  0  0  0  0
 24 25  1  0  0  0  0
 24 26  1  0  0  0  0
 26 27  1  0  0  0  0
 26 57  1  0  0  0  0
 26 58  1  0  0  0  0
 27 28  1  0  0  0  0
 27 59  1  0  0  0  0
 27 60  1  0  0  0  0
 28 29  1  0  0  0  0
 28 61  1  0  0  0  0
 28 62  1  0  0  0  0
 29 30  1  0  0  0  0
 29 34  1  0  0  0  0
 29 63  1  0  0  0  0
 30 31  1  0  0  0  0
 30 64  1  0  0  0  0
 30 65  1  0  0  0  0
 31 32  1  0  0  0  0
 31 66  1  0  0  0  0
 31 67  1  0  0  0  0
 32 33  1  0  0  0  0
 33 34  1  0  0  0  0
 33 68  1  0  0  0  0
 33 69  1  0  0  0  0
 34 70  1  0  0  0  0
 34 71  1  0  0  0  0
 35 36  1  0  0  0  0
 35 72  1  0  0  0  0
 35 73  1  0  0  0  0
 36 37  1  0  0  0  0
 36 74  1  0  0  0  0
 36 75  1  0  0  0  0
 37 38  1  0  0  0  0
 37 39  1  0  0  0  0
 38 76  1  0  0  0  0
 38 77  1  0  0  0  0
 39 40  2  0  0  0  0
 39 41  1  0  0  0  0
 41 78  1  0  0  0  0
 41 79  1  0  0  0  0
M  CHG  2   2   1  29   1
M  END
