CatS_92:1_D
 OpenBabel12041818463D

 89 93  0  0  1  0  0  0  0  0999 V2000
   39.6547  -14.1796   42.8788 C   0  0  0  0  0  0  0  0  0  0  0  0
   38.3831  -12.9204   43.1574 S   0  0  0  0  0  0  0  0  0  0  0  0
   37.1071  -13.5308   42.9789 O   0  0  0  0  0  0  0  0  0  0  0  0
   38.7002  -11.7831   42.3569 O   0  0  0  0  0  0  0  0  0  0  0  0
   38.4793  -12.5234   44.7361 N   0  0  0  0  0  0  0  0  0  0  0  0
   39.4068  -11.5247   45.2955 C   0  0  1  0  0  0  0  0  0  0  0  0
   38.7076  -10.1659   45.5038 C   0  0  0  0  0  0  0  0  0  0  0  0
   39.7126   -9.1298   46.0424 C   0  0  0  0  0  0  0  0  0  0  0  0
   40.3483   -9.6160   47.3230 N   0  3  1  0  0  0  0  0  0  0  0  0
   41.0598  -10.9314   47.1321 C   0  0  0  0  0  0  0  0  0  0  0  0
   40.0819  -12.0038   46.6007 C   0  0  0  0  0  0  0  0  0  0  0  0
   41.2105   -8.5814   48.0112 C   0  0  0  0  0  0  0  0  0  0  0  0
   42.4612   -8.2505   47.1711 C   0  0  1  0  0  0  0  0  0  0  0  0
   42.8400   -6.7589   47.1686 C   0  0  0  0  0  0  0  0  0  0  0  0
   42.4200   -5.9683   45.9917 N   0  0  0  0  0  0  0  0  0  0  0  0
   43.0287   -4.9596   45.3008 C   0  0  0  0  0  0  0  0  0  0  0  0
   42.3815   -4.6414   44.1727 C   0  0  0  0  0  0  0  0  0  0  0  0
   41.2372   -5.4719   44.1959 C   0  0  0  0  0  0  0  0  0  0  0  0
   41.3051   -6.2346   45.2669 N   0  0  0  0  0  0  0  0  0  0  0  0
   40.1222   -5.5172   43.2604 C   0  0  0  0  0  0  0  0  0  0  0  0
   39.1698   -4.5168   43.2058 C   0  0  0  0  0  0  0  0  0  0  0  0
   38.1449   -4.5733   42.2888 C   0  0  0  0  0  0  0  0  0  0  0  0
   38.0239   -5.6238   41.3989 C   0  0  0  0  0  0  0  0  0  0  0  0
   38.9697   -6.6383   41.4631 C   0  0  0  0  0  0  0  0  0  0  0  0
   39.9964   -6.5738   42.3791 C   0  0  0  0  0  0  0  0  0  0  0  0
   38.9163   -8.0701   40.3662 S   0  0  0  0  0  0  0  0  0  0  0  0
   39.5102   -7.5085   38.7440 C   0  0  0  0  0  0  0  0  0  0  0  0
   41.0388   -7.3309   38.6587 C   0  0  0  0  0  0  0  0  0  0  0  0
   41.6633   -8.1135   37.5269 N   0  3  2  0  0  0  0  0  0  0  0  0
   42.0090   -9.5434   37.8698 C   0  0  0  0  0  0  0  0  0  0  0  0
   42.4206  -10.3572   36.6168 C   0  0  0  0  0  0  0  0  0  0  0  0
   42.9061   -9.4560   35.4604 C   0  0  1  0  0  0  0  0  0  0  0  0
   43.7109   -8.2643   36.0106 C   0  0  0  0  0  0  0  0  0  0  0  0
   42.8258   -7.3684   36.9115 C   0  0  0  0  0  0  0  0  0  0  0  0
   43.7025  -10.1994   34.5959 F   0  0  0  0  0  0  0  0  0  0  0  0
   36.8614   -5.5890   40.4077 C   0  0  0  0  0  0  0  0  0  0  0  0
   36.1194   -6.7621   40.4819 F   0  0  0  0  0  0  0  0  0  0  0  0
   35.9784   -4.5319   40.6118 F   0  0  0  0  0  0  0  0  0  0  0  0
   37.3247   -5.4749   39.1012 F   0  0  0  0  0  0  0  0  0  0  0  0
   42.8555   -3.5821   43.1808 C   0  0  0  0  0  0  0  0  0  0  0  0
   44.2745   -3.1556   43.4794 N   0  3  0  0  0  0  0  0  0  0  0  0
   44.5612   -2.9236   44.9358 C   0  0  0  0  0  0  0  0  0  0  0  0
   44.3039   -4.2284   45.7205 C   0  0  0  0  0  0  0  0  0  0  0  0
   43.5857   -9.0213   47.6211 O   0  0  0  0  0  0  0  0  0  0  0  0
   42.2211   -8.4898   46.2303 H   0  0  0  0  0  0  0  0  0  0  0  0
   40.1326  -14.3557   43.7394 H   0  0  0  0  0  0  0  0  0  0  0  0
   39.2290  -15.0230   42.5513 H   0  0  0  0  0  0  0  0  0  0  0  0
   40.3049  -13.8552   42.1918 H   0  0  0  0  0  0  0  0  0  0  0  0
   38.5123  -13.3819   45.2987 H   0  0  0  0  0  0  0  0  0  0  0  0
   40.1344  -11.4044   44.6201 H   0  0  0  0  0  0  0  0  0  0  0  0
   37.9585  -10.2746   46.1574 H   0  0  0  0  0  0  0  0  0  0  0  0
   38.3474   -9.8458   44.6275 H   0  0  0  0  0  0  0  0  0  0  0  0
   39.2361   -8.2681   46.2163 H   0  0  0  0  0  0  0  0  0  0  0  0
   40.4311   -8.9952   45.3600 H   0  0  0  0  0  0  0  0  0  0  0  0
   39.6587   -9.7957   47.8918 H   0  0  0  0  0  0  0  0  0  0  0  0
   41.4383  -11.2325   48.0074 H   0  0  0  0  0  0  0  0  0  0  0  0
   41.7951  -10.8074   46.4658 H   0  0  0  0  0  0  0  0  0  0  0  0
   40.5838  -12.8499   46.4215 H   0  0  0  0  0  0  0  0  0  0  0  0
   39.3749  -12.1635   47.2895 H   0  0  0  0  0  0  0  0  0  0  0  0
   41.4966   -8.9334   48.9025 H   0  0  0  0  0  0  0  0  0  0  0  0
   40.6740   -7.7447   48.1217 H   0  0  0  0  0  0  0  0  0  0  0  0
   43.8357   -6.6979   47.2379 H   0  0  0  0  0  0  0  0  0  0  0  0
   42.3442   -6.3612   47.9406 H   0  0  0  0  0  0  0  0  0  0  0  0
   39.2260   -3.7446   43.8387 H   0  0  0  0  0  0  0  0  0  0  0  0
   37.4704   -3.8353   42.2660 H   0  0  0  0  0  0  0  0  0  0  0  0
   40.6697   -7.3127   42.4070 H   0  0  0  0  0  0  0  0  0  0  0  0
   39.0779   -6.6309   38.5367 H   0  0  0  0  0  0  0  0  0  0  0  0
   39.2677   -8.2217   38.0864 H   0  0  0  0  0  0  0  0  0  0  0  0
   41.4446   -7.6344   39.5208 H   0  0  0  0  0  0  0  0  0  0  0  0
   41.2174   -6.3626   38.4845 H   0  0  0  0  0  0  0  0  0  0  0  0
   41.0272   -8.1724   36.8772 H   0  0  0  0  0  0  0  0  0  0  0  0
   41.2132   -9.9770   38.2925 H   0  0  0  0  0  0  0  0  0  0  0  0
   42.7870   -9.5309   38.4979 H   0  0  0  0  0  0  0  0  0  0  0  0
   41.6328  -10.8879   36.3043 H   0  0  0  0  0  0  0  0  0  0  0  0
   43.1812  -10.9519   36.8771 H   0  0  0  0  0  0  0  0  0  0  0  0
   42.1103   -9.1053   34.9666 H   0  0  0  0  0  0  0  0  0  0  0  0
   44.0593   -7.7217   35.2462 H   0  0  0  0  0  0  0  0  0  0  0  0
   44.4691   -8.6170   36.5591 H   0  0  0  0  0  0  0  0  0  0  0  0
   43.3911   -6.9942   37.6467 H   0  0  0  0  0  0  0  0  0  0  0  0
   42.4453   -6.6476   36.3322 H   0  0  0  0  0  0  0  0  0  0  0  0
   42.2533   -2.7858   43.2380 H   0  0  0  0  0  0  0  0  0  0  0  0
   42.8290   -3.9732   42.2609 H   0  0  0  0  0  0  0  0  0  0  0  0
   44.8624   -3.7660   43.1469 H   0  0  0  0  0  0  0  0  0  0  0  0
   44.4696   -2.3896   43.0266 H   0  0  0  0  0  0  0  0  0  0  0  0
   43.9664   -2.1988   45.2836 H   0  0  0  0  0  0  0  0  0  0  0  0
   45.5158   -2.6482   45.0495 H   0  0  0  0  0  0  0  0  0  0  0  0
   45.0812   -4.8418   45.5805 H   0  0  0  0  0  0  0  0  0  0  0  0
   44.1898   -3.9719   46.6802 H   0  0  0  0  0  0  0  0  0  0  0  0
   43.3433   -9.6048   48.4035 H   0  0  0  0  0  0  0  0  0  0  0  0
  1  2  1  0  0  0  0
  1 46  1  0  0  0  0
  1 47  1  0  0  0  0
  1 48  1  0  0  0  0
  2  3  2  0  0  0  0
  2  4  2  0  0  0  0
  2  5  1  0  0  0  0
  5  6  1  0  0  0  0
  5 49  1  0  0  0  0
  6  7  1  0  0  0  0
  6 11  1  0  0  0  0
  6 50  1  6  0  0  0
  7  8  1  0  0  0  0
  7 51  1  0  0  0  0
  7 52  1  0  0  0  0
  8  9  1  0  0  0  0
  8 53  1  0  0  0  0
  8 54  1  0  0  0  0
  9 10  1  0  0  0  0
  9 12  1  0  0  0  0
  9 55  1  1  0  0  0
 10 11  1  0  0  0  0
 10 56  1  0  0  0  0
 10 57  1  0  0  0  0
 11 58  1  0  0  0  0
 11 59  1  0  0  0  0
 12 13  1  0  0  0  0
 12 60  1  0  0  0  0
 12 61  1  0  0  0  0
 13 14  1  0  0  0  0
 13 44  1  0  0  0  0
 13 45  1  6  0  0  0
 14 15  1  0  0  0  0
 14 62  1  0  0  0  0
 14 63  1  0  0  0  0
 15 16  1  0  0  0  0
 15 19  1  0  0  0  0
 16 17  2  0  0  0  0
 16 43  1  0  0  0  0
 17 18  1  0  0  0  0
 17 40  1  0  0  0  0
 18 19  2  0  0  0  0
 18 20  1  0  0  0  0
 20 21  2  0  0  0  0
 20 25  1  0  0  0  0
 21 22  1  0  0  0  0
 21 64  1  0  0  0  0
 22 23  2  0  0  0  0
 22 65  1  0  0  0  0
 23 24  1  0  0  0  0
 23 36  1  0  0  0  0
 24 25  2  0  0  0  0
 24 26  1  0  0  0  0
 25 66  1  0  0  0  0
 26 27  1  0  0  0  0
 27 28  1  0  0  0  0
 27 67  1  0  0  0  0
 27 68  1  0  0  0  0
 28 29  1  0  0  0  0
 28 69  1  0  0  0  0
 28 70  1  0  0  0  0
 29 30  1  0  0  0  0
 29 34  1  0  0  0  0
 29 71  1  6  0  0  0
 30 31  1  0  0  0  0
 30 72  1  0  0  0  0
 30 73  1  0  0  0  0
 31 32  1  0  0  0  0
 31 74  1  0  0  0  0
 31 75  1  0  0  0  0
 32 33  1  0  0  0  0
 32 35  1  0  0  0  0
 32 76  1  6  0  0  0
 33 34  1  0  0  0  0
 33 77  1  0  0  0  0
 33 78  1  0  0  0  0
 34 79  1  0  0  0  0
 34 80  1  0  0  0  0
 36 37  1  0  0  0  0
 36 38  1  0  0  0  0
 36 39  1  0  0  0  0
 40 41  1  0  0  0  0
 40 81  1  0  0  0  0
 40 82  1  0  0  0  0
 41 42  1  0  0  0  0
 41 83  1  0  0  0  0
 41 84  1  0  0  0  0
 42 43  1  0  0  0  0
 42 85  1  0  0  0  0
 42 86  1  0  0  0  0
 43 87  1  0  0  0  0
 43 88  1  0  0  0  0
 44 89  1  0  0  0  0
M  CHG  3   9   1  29   1  41   1
M  END
