CatS_404:1_D
 OpenBabel12041818463D

 90 95  0  0  0  0  0  0  0  0999 V2000
   51.8270   -8.2701   31.5065 C   0  0  0  0  0  0  0  0  0  0  0  0
   51.4256   -9.0805   33.0768 S   0  0  0  0  0  0  0  0  0  0  0  0
   51.1543   -7.7704   34.2689 C   0  0  0  0  0  0  0  0  0  0  0  0
   50.1481   -7.8944   35.1994 C   0  0  0  0  0  0  0  0  0  0  0  0
   49.9473   -6.8860   36.1128 C   0  0  0  0  0  0  0  0  0  0  0  0
   50.7399   -5.7577   36.0935 C   0  0  0  0  0  0  0  0  0  0  0  0
   51.7431   -5.6443   35.1549 C   0  0  0  0  0  0  0  0  0  0  0  0
   51.9544   -6.6507   34.2396 C   0  0  0  0  0  0  0  0  0  0  0  0
   50.5126   -4.6592   37.1215 C   0  0  0  0  0  0  0  0  0  0  0  0
   50.8976   -3.2946   36.6024 N   0  3  0  0  0  0  0  0  0  0  0  0
   51.0733   -2.2197   37.6488 C   0  0  0  0  0  0  0  0  0  0  0  0
   50.0113   -2.1745   38.7418 C   0  0  0  0  0  0  0  0  0  0  0  0
   50.3336   -2.0872   40.0830 C   0  0  0  0  0  0  0  0  0  0  0  0
   49.3497   -2.0894   41.0406 C   0  0  0  0  0  0  0  0  0  0  0  0
   48.0150   -2.1923   40.6626 C   0  0  0  0  0  0  0  0  0  0  0  0
   47.6917   -2.2706   39.3134 C   0  0  0  0  0  0  0  0  0  0  0  0
   48.6841   -2.2583   38.3686 C   0  0  0  0  0  0  0  0  0  0  0  0
   46.9565   -2.2475   41.6377 C   0  0  0  0  0  0  0  0  0  0  0  0
   46.0342   -2.2679   42.4366 C   0  0  0  0  0  0  0  0  0  0  0  0
   44.9174   -2.2601   43.3464 C   0  0  0  0  0  0  0  0  0  0  0  0
   44.0031   -3.3069   43.3863 C   0  0  0  0  0  0  0  0  0  0  0  0
   42.9358   -3.2728   44.2620 C   0  0  0  0  0  0  0  0  0  0  0  0
   42.7832   -2.1647   45.0866 C   0  0  0  0  0  0  0  0  0  0  0  0
   43.6878   -1.1265   45.0556 C   0  0  0  0  0  0  0  0  0  0  0  0
   44.7570   -1.1699   44.1962 C   0  0  0  0  0  0  0  0  0  0  0  0
   45.9032    0.1383   44.1638 Cl  0  0  0  0  0  0  0  0  0  0  0  0
   42.0035   -4.3898   44.2970 C   0  0  0  0  0  0  0  0  0  0  0  0
   42.0276   -5.5549   45.1016 C   0  0  0  0  0  0  0  0  0  0  0  0
   40.9444   -6.2319   44.7085 C   0  0  0  0  0  0  0  0  0  0  0  0
   40.2534   -5.5901   43.7336 N   0  0  0  0  0  0  0  0  0  0  0  0
   40.9493   -4.4536   43.5124 N   0  0  0  0  0  0  0  0  0  0  0  0
   39.0622   -6.0052   42.9788 C   0  0  0  0  0  0  0  0  0  0  0  0
   39.1703   -7.3437   42.2235 C   0  0  0  0  0  0  0  0  0  0  0  0
   39.1618   -7.1559   40.6908 C   0  0  0  0  0  0  0  0  0  0  0  0
   37.8100   -6.7959   40.1250 N   0  3  0  0  0  0  0  0  0  0  0  0
   37.5505   -7.5449   38.8412 C   0  0  0  0  0  0  0  0  0  0  0  0
   36.0916   -7.4131   38.3654 C   0  0  0  0  0  0  0  0  0  0  0  0
   35.7064   -5.6779   38.0225 S   0  0  0  0  0  0  0  0  0  0  0  0
   36.1266   -4.9699   39.6346 C   0  0  0  0  0  0  0  0  0  0  0  0
   37.5851   -5.3069   39.9995 C   0  0  0  0  0  0  0  0  0  0  0  0
   40.5458   -7.5667   45.3133 C   0  0  0  0  0  0  0  0  0  0  0  0
   41.7345   -8.2594   46.0116 C   0  0  0  0  0  0  0  0  0  0  0  0
   42.6156   -7.3484   46.7728 N   0  0  0  0  0  0  0  0  0  0  0  0
   42.9855   -6.0367   46.1841 C   0  0  0  0  0  0  0  0  0  0  0  0
   43.1157   -7.7631   47.9642 C   0  0  0  0  0  0  0  0  0  0  0  0
   42.7057   -8.7889   48.5174 O   0  0  0  0  0  0  0  0  0  0  0  0
   44.0963   -7.0362   48.5379 N   0  0  0  0  0  0  0  0  0  0  0  0
   51.8116   -7.2790   31.6383 H   0  0  0  0  0  0  0  0  0  0  0  0
   52.7357   -8.5553   31.2017 H   0  0  0  0  0  0  0  0  0  0  0  0
   51.1549   -8.5290   30.8126 H   0  0  0  0  0  0  0  0  0  0  0  0
   49.5688   -8.7095   35.2114 H   0  0  0  0  0  0  0  0  0  0  0  0
   49.2217   -6.9715   36.7956 H   0  0  0  0  0  0  0  0  0  0  0  0
   52.3198   -4.8275   35.1386 H   0  0  0  0  0  0  0  0  0  0  0  0
   52.6829   -6.5691   33.5595 H   0  0  0  0  0  0  0  0  0  0  0  0
   51.0578   -4.8613   37.9351 H   0  0  0  0  0  0  0  0  0  0  0  0
   49.5355   -4.6382   37.3332 H   0  0  0  0  0  0  0  0  0  0  0  0
   50.2425   -3.0181   36.0329 H   0  0  0  0  0  0  0  0  0  0  0  0
   51.6322   -3.3494   36.0666 H   0  0  0  0  0  0  0  0  0  0  0  0
   51.0754   -1.3346   37.1835 H   0  0  0  0  0  0  0  0  0  0  0  0
   51.9312   -2.4345   38.1158 H   0  0  0  0  0  0  0  0  0  0  0  0
   51.2927   -2.0219   40.3586 H   0  0  0  0  0  0  0  0  0  0  0  0
   49.5921   -2.0170   42.0079 H   0  0  0  0  0  0  0  0  0  0  0  0
   46.7344   -2.3360   39.0318 H   0  0  0  0  0  0  0  0  0  0  0  0
   48.4450   -2.3104   37.3990 H   0  0  0  0  0  0  0  0  0  0  0  0
   44.1193   -4.0906   42.7761 H   0  0  0  0  0  0  0  0  0  0  0  0
   42.0044   -2.1204   45.7123 H   0  0  0  0  0  0  0  0  0  0  0  0
   43.5653   -0.3397   45.6604 H   0  0  0  0  0  0  0  0  0  0  0  0
   38.8580   -5.2901   42.3102 H   0  0  0  0  0  0  0  0  0  0  0  0
   38.3455   -6.1416   43.6626 H   0  0  0  0  0  0  0  0  0  0  0  0
   38.3982   -7.9239   42.4829 H   0  0  0  0  0  0  0  0  0  0  0  0
   40.0419   -7.7655   42.4733 H   0  0  0  0  0  0  0  0  0  0  0  0
   39.4663   -8.0086   40.2663 H   0  0  0  0  0  0  0  0  0  0  0  0
   39.7720   -6.3897   40.4897 H   0  0  0  0  0  0  0  0  0  0  0  0
   37.1967   -7.0987   40.7269 H   0  0  0  0  0  0  0  0  0  0  0  0
   37.7572   -8.5126   38.9855 H   0  0  0  0  0  0  0  0  0  0  0  0
   38.1361   -7.1478   38.1345 H   0  0  0  0  0  0  0  0  0  0  0  0
   35.4777   -7.7571   39.0759 H   0  0  0  0  0  0  0  0  0  0  0  0
   35.9701   -7.9467   37.5284 H   0  0  0  0  0  0  0  0  0  0  0  0
   35.5142   -5.3439   40.3311 H   0  0  0  0  0  0  0  0  0  0  0  0
   36.0234   -3.9762   39.5914 H   0  0  0  0  0  0  0  0  0  0  0  0
   38.1894   -4.9468   39.2888 H   0  0  0  0  0  0  0  0  0  0  0  0
   37.7835   -4.8898   40.8865 H   0  0  0  0  0  0  0  0  0  0  0  0
   40.2020   -8.1625   44.5875 H   0  0  0  0  0  0  0  0  0  0  0  0
   39.8400   -7.3969   46.0010 H   0  0  0  0  0  0  0  0  0  0  0  0
   42.2842   -8.7180   45.3134 H   0  0  0  0  0  0  0  0  0  0  0  0
   41.3418   -8.8942   46.6770 H   0  0  0  0  0  0  0  0  0  0  0  0
   43.0055   -5.3548   46.9152 H   0  0  0  0  0  0  0  0  0  0  0  0
   43.8784   -6.1560   45.7498 H   0  0  0  0  0  0  0  0  0  0  0  0
   44.4322   -6.3315   48.1367 H   0  0  0  0  0  0  0  0  0  0  0  0
   44.4146   -7.2804   49.3212 H   0  0  0  0  0  0  0  0  0  0  0  0
  1  2  1  0  0  0  0
  1 48  1  0  0  0  0
  1 49  1  0  0  0  0
  1 50  1  0  0  0  0
  2  3  1  0  0  0  0
  3  4  2  0  0  0  0
  3  8  1  0  0  0  0
  4  5  1  0  0  0  0
  4 51  1  0  0  0  0
  5  6  2  0  0  0  0
  5 52  1  0  0  0  0
  6  7  1  0  0  0  0
  6  9  1  0  0  0  0
  7  8  2  0  0  0  0
  7 53  1  0  0  0  0
  8 54  1  0  0  0  0
  9 10  1  0  0  0  0
  9 55  1  0  0  0  0
  9 56  1  0  0  0  0
 10 11  1  0  0  0  0
 10 57  1  0  0  0  0
 10 58  1  0  0  0  0
 11 12  1  0  0  0  0
 11 59  1  0  0  0  0
 11 60  1  0  0  0  0
 12 13  2  0  0  0  0
 12 17  1  0  0  0  0
 13 14  1  0  0  0  0
 13 61  1  0  0  0  0
 14 15  2  0  0  0  0
 14 62  1  0  0  0  0
 15 16  1  0  0  0  0
 15 18  1  0  0  0  0
 16 17  2  0  0  0  0
 16 63  1  0  0  0  0
 17 64  1  0  0  0  0
 18 19  3  0  0  0  0
 19 20  1  0  0  0  0
 20 21  2  0  0  0  0
 20 25  1  0  0  0  0
 21 22  1  0  0  0  0
 21 65  1  0  0  0  0
 22 23  2  0  0  0  0
 22 27  1  0  0  0  0
 23 24  1  0  0  0  0
 23 66  1  0  0  0  0
 24 25  2  0  0  0  0
 24 67  1  0  0  0  0
 25 26  1  0  0  0  0
 27 28  1  0  0  0  0
 27 31  2  0  0  0  0
 28 29  2  0  0  0  0
 28 44  1  0  0  0  0
 29 30  1  0  0  0  0
 29 41  1  0  0  0  0
 30 31  1  0  0  0  0
 30 32  1  0  0  0  0
 32 33  1  0  0  0  0
 32 68  1  0  0  0  0
 32 69  1  0  0  0  0
 33 34  1  0  0  0  0
 33 70  1  0  0  0  0
 33 71  1  0  0  0  0
 34 35  1  0  0  0  0
 34 72  1  0  0  0  0
 34 73  1  0  0  0  0
 35 36  1  0  0  0  0
 35 40  1  0  0  0  0
 35 74  1  0  0  0  0
 36 37  1  0  0  0  0
 36 75  1  0  0  0  0
 36 76  1  0  0  0  0
 37 38  1  0  0  0  0
 37 77  1  0  0  0  0
 37 78  1  0  0  0  0
 38 39  1  0  0  0  0
 39 40  1  0  0  0  0
 39 79  1  0  0  0  0
 39 80  1  0  0  0  0
 40 81  1  0  0  0  0
 40 82  1  0  0  0  0
 41 42  1  0  0  0  0
 41 83  1  0  0  0  0
 41 84  1  0  0  0  0
 42 43  1  0  0  0  0
 42 85  1  0  0  0  0
 42 86  1  0  0  0  0
 43 44  1  0  0  0  0
 43 45  1  0  0  0  0
 44 87  1  0  0  0  0
 44 88  1  0  0  0  0
 45 46  2  0  0  0  0
 45 47  1  0  0  0  0
 47 89  1  0  0  0  0
 47 90  1  0  0  0  0
M  CHG  2  10   1  35   1
M  END
