CatS_433:1_D
 OpenBabel12041818463D

 89 94  0  0  1  0  0  0  0  0999 V2000
   35.3095   -4.8932   39.8496 C   0  0  0  0  0  0  0  0  0  0  0  0
   35.8312   -6.3447   39.8619 C   0  0  1  0  0  0  0  0  0  0  0  0
   35.9503   -6.8377   38.4055 C   0  0  0  0  0  0  0  0  0  0  0  0
   36.4504   -8.1883   38.3581 O   0  0  0  0  0  0  0  0  0  0  0  0
   37.7674   -8.3054   38.9286 C   0  0  0  0  0  0  0  0  0  0  0  0
   37.7568   -7.8925   40.4131 C   0  0  0  0  0  0  0  0  0  0  0  0
   37.1637   -6.5090   40.5658 N   0  3  1  0  0  0  0  0  0  0  0  0
   38.1456   -5.4041   40.2505 C   0  0  0  0  0  0  0  0  0  0  0  0
   38.2628   -4.3617   41.3854 C   0  0  0  0  0  0  0  0  0  0  0  0
   38.3242   -5.0223   42.7795 C   0  0  0  0  0  0  0  0  0  0  0  0
   39.6324   -5.1330   43.4404 N   0  0  0  0  0  0  0  0  0  0  0  0
   40.1558   -6.0922   44.2472 C   0  0  0  0  0  0  0  0  0  0  0  0
   41.3338   -5.7392   44.7756 C   0  0  0  0  0  0  0  0  0  0  0  0
   41.5598   -4.4480   44.2455 C   0  0  0  0  0  0  0  0  0  0  0  0
   40.5479   -4.1428   43.4635 N   0  0  0  0  0  0  0  0  0  0  0  0
   42.6609   -3.5232   44.4583 C   0  0  0  0  0  0  0  0  0  0  0  0
   42.6130   -2.7280   45.5926 C   0  0  0  0  0  0  0  0  0  0  0  0
   43.6277   -1.8471   45.8844 C   0  0  0  0  0  0  0  0  0  0  0  0
   44.7145   -1.7506   45.0527 C   0  0  0  0  0  0  0  0  0  0  0  0
   44.7872   -2.5419   43.9081 C   0  0  0  0  0  0  0  0  0  0  0  0
   43.7497   -3.4221   43.6105 C   0  0  0  0  0  0  0  0  0  0  0  0
   45.9651   -2.4388   43.0838 C   0  0  0  0  0  0  0  0  0  0  0  0
   46.9927   -2.3117   42.4372 C   0  0  0  0  0  0  0  0  0  0  0  0
   48.2360   -2.1187   41.7353 C   0  0  0  0  0  0  0  0  0  0  0  0
   49.3642   -1.7955   42.4816 C   0  0  0  0  0  0  0  0  0  0  0  0
   50.5750   -1.6368   41.8621 C   0  0  0  0  0  0  0  0  0  0  0  0
   50.6746   -1.7945   40.4955 C   0  0  0  0  0  0  0  0  0  0  0  0
   49.5591   -2.1016   39.7385 C   0  0  0  0  0  0  0  0  0  0  0  0
   48.3419   -2.2646   40.3545 C   0  0  0  0  0  0  0  0  0  0  0  0
   49.6902   -2.2722   38.2297 C   0  0  0  0  0  0  0  0  0  0  0  0
   50.3039   -3.5817   37.7936 N   0  3  0  0  0  0  0  0  0  0  0  0
   50.8319   -3.5033   36.3827 C   0  0  0  0  0  0  0  0  0  0  0  0
   51.4452   -4.8539   35.9638 C   0  0  0  0  0  0  0  0  0  0  0  0
   50.4894   -5.9175   36.1342 O   0  0  0  0  0  0  0  0  0  0  0  0
   50.0683   -6.0574   37.5038 C   0  0  0  0  0  0  0  0  0  0  0  0
   49.3865   -4.7649   37.9907 C   0  0  0  0  0  0  0  0  0  0  0  0
   52.2187   -1.5993   39.7199 Cl  0  0  0  0  0  0  0  0  0  0  0  0
   45.9996   -0.6434   45.4428 Cl  0  0  0  0  0  0  0  0  0  0  0  0
   42.1309   -6.6170   45.7337 C   0  0  0  0  0  0  0  0  0  0  0  0
   41.4720   -7.9253   45.9448 N   0  0  0  0  0  0  0  0  0  0  0  0
   39.9998   -8.0148   45.8815 C   0  0  0  0  0  0  0  0  0  0  0  0
   39.5035   -7.4326   44.5413 C   0  0  0  0  0  0  0  0  0  0  0  0
   42.1995   -9.0305   46.1888 C   0  0  0  0  0  0  0  0  0  0  0  0
   41.7473  -10.1607   46.3149 O   0  0  0  0  0  0  0  0  0  0  0  0
   43.6703   -8.9130   46.3149 C   0  0  0  0  0  0  0  0  0  0  0  0
   44.3915   -9.2304   45.3801 O   0  0  0  0  0  0  0  0  0  0  0  0
   44.1034   -8.4650   47.5001 N   0  0  0  0  0  0  0  0  0  0  0  0
   35.1736   -6.8905   40.3811 H   0  0  0  0  0  0  0  0  0  0  0  0
   34.7433   -4.7576   39.0366 H   0  0  0  0  0  0  0  0  0  0  0  0
   34.7654   -4.7228   40.6712 H   0  0  0  0  0  0  0  0  0  0  0  0
   36.0817   -4.2580   39.8332 H   0  0  0  0  0  0  0  0  0  0  0  0
   36.5741   -6.2373   37.9052 H   0  0  0  0  0  0  0  0  0  0  0  0
   35.0419   -6.8203   37.9876 H   0  0  0  0  0  0  0  0  0  0  0  0
   38.3983   -7.7148   38.4255 H   0  0  0  0  0  0  0  0  0  0  0  0
   38.0621   -9.2588   38.8635 H   0  0  0  0  0  0  0  0  0  0  0  0
   38.6929   -7.8941   40.7647 H   0  0  0  0  0  0  0  0  0  0  0  0
   37.2002   -8.5438   40.9290 H   0  0  0  0  0  0  0  0  0  0  0  0
   36.9710   -6.4194   41.4529 H   0  0  0  0  0  0  0  0  0  0  0  0
   37.8482   -4.9394   39.4165 H   0  0  0  0  0  0  0  0  0  0  0  0
   39.0454   -5.8257   40.1380 H   0  0  0  0  0  0  0  0  0  0  0  0
   37.4699   -3.7533   41.3491 H   0  0  0  0  0  0  0  0  0  0  0  0
   39.1138   -3.8544   41.2496 H   0  0  0  0  0  0  0  0  0  0  0  0
   37.9575   -5.9480   42.6864 H   0  0  0  0  0  0  0  0  0  0  0  0
   37.8029   -4.4047   43.3684 H   0  0  0  0  0  0  0  0  0  0  0  0
   41.8281   -2.7961   46.2085 H   0  0  0  0  0  0  0  0  0  0  0  0
   43.5733   -1.2762   46.7036 H   0  0  0  0  0  0  0  0  0  0  0  0
   43.7917   -3.9818   42.7829 H   0  0  0  0  0  0  0  0  0  0  0  0
   49.2911   -1.6789   43.4721 H   0  0  0  0  0  0  0  0  0  0  0  0
   51.3861   -1.4069   42.3999 H   0  0  0  0  0  0  0  0  0  0  0  0
   47.5324   -2.4881   39.8116 H   0  0  0  0  0  0  0  0  0  0  0  0
   50.2577   -1.5273   37.8787 H   0  0  0  0  0  0  0  0  0  0  0  0
   48.7600   -2.2616   37.8626 H   0  0  0  0  0  0  0  0  0  0  0  0
   51.0299   -3.7209   38.3277 H   0  0  0  0  0  0  0  0  0  0  0  0
   51.5311   -2.7903   36.3300 H   0  0  0  0  0  0  0  0  0  0  0  0
   50.0762   -3.2857   35.7650 H   0  0  0  0  0  0  0  0  0  0  0  0
   52.2512   -5.0394   36.5259 H   0  0  0  0  0  0  0  0  0  0  0  0
   51.7043   -4.8056   34.9991 H   0  0  0  0  0  0  0  0  0  0  0  0
   50.8650   -6.2488   38.0771 H   0  0  0  0  0  0  0  0  0  0  0  0
   49.4140   -6.8111   37.5664 H   0  0  0  0  0  0  0  0  0  0  0  0
   48.5426   -4.6194   37.4743 H   0  0  0  0  0  0  0  0  0  0  0  0
   49.1780   -4.8558   38.9645 H   0  0  0  0  0  0  0  0  0  0  0  0
   42.2161   -6.1475   46.6125 H   0  0  0  0  0  0  0  0  0  0  0  0
   43.0320   -6.7817   45.3326 H   0  0  0  0  0  0  0  0  0  0  0  0
   39.6005   -7.4993   46.6395 H   0  0  0  0  0  0  0  0  0  0  0  0
   39.7221   -8.9731   45.9492 H   0  0  0  0  0  0  0  0  0  0  0  0
   39.7226   -8.0719   43.8043 H   0  0  0  0  0  0  0  0  0  0  0  0
   38.5150   -7.2954   44.6047 H   0  0  0  0  0  0  0  0  0  0  0  0
   43.5246   -8.2545   48.1286 H   0  0  0  0  0  0  0  0  0  0  0  0
   44.9663   -8.3812   47.6505 H   0  0  0  0  0  0  0  0  0  0  0  0
  1  2  1  0  0  0  0
  1 49  1  0  0  0  0
  1 50  1  0  0  0  0
  1 51  1  0  0  0  0
  2  3  1  0  0  0  0
  2  7  1  0  0  0  0
  2 48  1  1  0  0  0
  3  4  1  0  0  0  0
  3 52  1  0  0  0  0
  3 53  1  0  0  0  0
  4  5  1  0  0  0  0
  5  6  1  0  0  0  0
  5 54  1  0  0  0  0
  5 55  1  0  0  0  0
  6  7  1  0  0  0  0
  6 56  1  0  0  0  0
  6 57  1  0  0  0  0
  7  8  1  0  0  0  0
  7 58  1  1  0  0  0
  8  9  1  0  0  0  0
  8 59  1  0  0  0  0
  8 60  1  0  0  0  0
  9 10  1  0  0  0  0
  9 61  1  0  0  0  0
  9 62  1  0  0  0  0
 10 11  1  0  0  0  0
 10 63  1  0  0  0  0
 10 64  1  0  0  0  0
 11 12  1  0  0  0  0
 11 15  1  0  0  0  0
 12 13  2  0  0  0  0
 12 42  1  0  0  0  0
 13 14  1  0  0  0  0
 13 39  1  0  0  0  0
 14 15  2  0  0  0  0
 14 16  1  0  0  0  0
 16 17  2  0  0  0  0
 16 21  1  0  0  0  0
 17 18  1  0  0  0  0
 17 65  1  0  0  0  0
 18 19  2  0  0  0  0
 18 66  1  0  0  0  0
 19 20  1  0  0  0  0
 19 38  1  0  0  0  0
 20 21  2  0  0  0  0
 20 22  1  0  0  0  0
 21 67  1  0  0  0  0
 22 23  3  0  0  0  0
 23 24  1  0  0  0  0
 24 25  2  0  0  0  0
 24 29  1  0  0  0  0
 25 26  1  0  0  0  0
 25 68  1  0  0  0  0
 26 27  2  0  0  0  0
 26 69  1  0  0  0  0
 27 28  1  0  0  0  0
 27 37  1  0  0  0  0
 28 29  2  0  0  0  0
 28 30  1  0  0  0  0
 29 70  1  0  0  0  0
 30 31  1  0  0  0  0
 30 71  1  0  0  0  0
 30 72  1  0  0  0  0
 31 32  1  0  0  0  0
 31 36  1  0  0  0  0
 31 73  1  0  0  0  0
 32 33  1  0  0  0  0
 32 74  1  0  0  0  0
 32 75  1  0  0  0  0
 33 34  1  0  0  0  0
 33 76  1  0  0  0  0
 33 77  1  0  0  0  0
 34 35  1  0  0  0  0
 35 36  1  0  0  0  0
 35 78  1  0  0  0  0
 35 79  1  0  0  0  0
 36 80  1  0  0  0  0
 36 81  1  0  0  0  0
 39 40  1  0  0  0  0
 39 82  1  0  0  0  0
 39 83  1  0  0  0  0
 40 41  1  0  0  0  0
 40 43  1  0  0  0  0
 41 42  1  0  0  0  0
 41 84  1  0  0  0  0
 41 85  1  0  0  0  0
 42 86  1  0  0  0  0
 42 87  1  0  0  0  0
 43 44  2  0  0  0  0
 43 45  1  0  0  0  0
 45 46  2  0  0  0  0
 45 47  1  0  0  0  0
 47 88  1  0  0  0  0
 47 89  1  0  0  0  0
M  CHG  2   7   1  31   1
M  END
