CatS_105:1_D
 OpenBabel12041818463D

 90 95  0  0  1  0  0  0  0  0999 V2000
   48.2746   -2.8027   38.6082 C   0  0  0  0  0  0  0  0  0  0  0  0
   49.2565   -3.6375   38.1304 C   0  0  0  0  0  0  0  0  0  0  0  0
   50.2132   -4.1391   38.9859 C   0  0  0  0  0  0  0  0  0  0  0  0
   50.1819   -3.8006   40.3207 C   0  0  0  0  0  0  0  0  0  0  0  0
   49.1996   -2.9659   40.7963 C   0  0  0  0  0  0  0  0  0  0  0  0
   48.2277   -2.4523   39.9492 C   0  0  0  0  0  0  0  0  0  0  0  0
   47.2194   -1.5937   40.4314 N   0  0  0  0  0  0  0  0  0  0  0  0
   45.8130   -1.8735   40.0657 C   0  0  0  0  0  0  0  0  0  0  0  0
   44.7366   -1.6260   41.1414 C   0  0  0  0  0  0  0  0  0  0  0  0
   45.2884   -1.9733   42.4960 N   0  3  0  0  0  0  0  0  0  0  0  0
   46.4333   -1.0680   42.8656 C   0  0  0  0  0  0  0  0  0  0  0  0
   47.4343   -0.8701   41.7031 C   0  0  0  0  0  0  0  0  0  0  0  0
   44.2384   -2.0024   43.5801 C   0  0  0  0  0  0  0  0  0  0  0  0
   44.0547   -3.3641   44.2842 C   0  0  1  0  0  0  0  0  0  0  0  0
   42.8661   -3.3789   45.2652 C   0  0  0  0  0  0  0  0  0  0  0  0
   41.9215   -4.4301   44.8591 N   0  0  0  0  0  0  0  0  0  0  0  0
   41.7035   -5.6758   45.3555 C   0  0  0  0  0  0  0  0  0  0  0  0
   40.7232   -6.3197   44.7095 C   0  0  0  0  0  0  0  0  0  0  0  0
   40.3091   -5.3960   43.7223 C   0  0  0  0  0  0  0  0  0  0  0  0
   41.0222   -4.3008   43.8609 N   0  0  0  0  0  0  0  0  0  0  0  0
   39.2947   -5.5256   42.6910 C   0  0  0  0  0  0  0  0  0  0  0  0
   38.4305   -4.4728   42.4634 C   0  0  0  0  0  0  0  0  0  0  0  0
   37.4687   -4.5541   41.4864 C   0  0  0  0  0  0  0  0  0  0  0  0
   37.3346   -5.6767   40.6957 C   0  0  0  0  0  0  0  0  0  0  0  0
   38.2020   -6.7372   40.9287 C   0  0  0  0  0  0  0  0  0  0  0  0
   39.1667   -6.6598   41.9085 C   0  0  0  0  0  0  0  0  0  0  0  0
   38.1364   -8.2627   39.9794 S   0  0  0  0  0  0  0  0  0  0  0  0
   38.8838   -7.8938   38.3686 C   0  0  0  0  0  0  0  0  0  0  0  0
   40.3750   -7.5175   38.5005 C   0  0  0  0  0  0  0  0  0  0  0  0
   41.2405   -8.0131   37.3670 N   0  3  1  0  0  0  0  0  0  0  0  0
   42.5355   -7.2471   37.2350 C   0  0  0  0  0  0  0  0  0  0  0  0
   43.3445   -7.7310   36.0141 C   0  0  0  0  0  0  0  0  0  0  0  0
   43.6087   -9.2444   36.1232 C   0  0  1  0  0  0  0  0  0  0  0  0
   42.2726  -10.0040   36.2212 C   0  0  0  0  0  0  0  0  0  0  0  0
   41.4705   -9.5035   37.4396 C   0  0  0  0  0  0  0  0  0  0  0  0
   44.2975   -9.6723   34.9943 F   0  0  0  0  0  0  0  0  0  0  0  0
   36.2113   -5.5841   39.6630 C   0  0  0  0  0  0  0  0  0  0  0  0
   35.4505   -6.7494   39.6173 F   0  0  0  0  0  0  0  0  0  0  0  0
   36.7470   -5.4019   38.3939 F   0  0  0  0  0  0  0  0  0  0  0  0
   35.3128   -4.5480   39.8857 F   0  0  0  0  0  0  0  0  0  0  0  0
   40.2594   -7.7278   45.0575 C   0  0  0  0  0  0  0  0  0  0  0  0
   40.7367   -8.0937   46.4438 N   0  3  0  0  0  0  0  0  0  0  0  0
   42.1905   -7.7963   46.7057 C   0  0  0  0  0  0  0  0  0  0  0  0
   42.4628   -6.2847   46.5284 C   0  0  0  0  0  0  0  0  0  0  0  0
   43.8571   -4.3698   43.2797 O   0  0  0  0  0  0  0  0  0  0  0  0
   51.1709   -4.9535   38.5224 F   0  0  0  0  0  0  0  0  0  0  0  0
   44.8767   -3.5426   44.8249 H   0  0  0  0  0  0  0  0  0  0  0  0
   47.5844   -2.4433   37.9802 H   0  0  0  0  0  0  0  0  0  0  0  0
   49.2767   -3.8810   37.1607 H   0  0  0  0  0  0  0  0  0  0  0  0
   50.8749   -4.1627   40.9442 H   0  0  0  0  0  0  0  0  0  0  0  0
   49.1848   -2.7250   41.7667 H   0  0  0  0  0  0  0  0  0  0  0  0
   45.7572   -2.8355   39.7981 H   0  0  0  0  0  0  0  0  0  0  0  0
   45.6027   -1.2179   39.3405 H   0  0  0  0  0  0  0  0  0  0  0  0
   43.9358   -2.1935   40.9499 H   0  0  0  0  0  0  0  0  0  0  0  0
   44.4708   -0.6621   41.1295 H   0  0  0  0  0  0  0  0  0  0  0  0
   45.6366   -2.8123   42.4301 H   0  0  0  0  0  0  0  0  0  0  0  0
   46.9182   -1.4646   43.6451 H   0  0  0  0  0  0  0  0  0  0  0  0
   46.0504   -0.1718   43.0897 H   0  0  0  0  0  0  0  0  0  0  0  0
   47.4441    0.1061   41.4866 H   0  0  0  0  0  0  0  0  0  0  0  0
   48.2847   -1.2602   42.0562 H   0  0  0  0  0  0  0  0  0  0  0  0
   43.3634   -1.7424   43.1716 H   0  0  0  0  0  0  0  0  0  0  0  0
   44.5526   -1.3677   44.2861 H   0  0  0  0  0  0  0  0  0  0  0  0
   42.4080   -2.4901   45.2524 H   0  0  0  0  0  0  0  0  0  0  0  0
   43.1956   -3.5626   46.1913 H   0  0  0  0  0  0  0  0  0  0  0  0
   38.5059   -3.6426   43.0157 H   0  0  0  0  0  0  0  0  0  0  0  0
   36.8506   -3.7809   41.3448 H   0  0  0  0  0  0  0  0  0  0  0  0
   39.7829   -7.4334   42.0565 H   0  0  0  0  0  0  0  0  0  0  0  0
   38.3912   -7.1318   37.9486 H   0  0  0  0  0  0  0  0  0  0  0  0
   38.8212   -8.7154   37.8020 H   0  0  0  0  0  0  0  0  0  0  0  0
   40.7227   -7.9024   39.3554 H   0  0  0  0  0  0  0  0  0  0  0  0
   40.4221   -6.5187   38.4809 H   0  0  0  0  0  0  0  0  0  0  0  0
   40.7688   -7.8648   36.6012 H   0  0  0  0  0  0  0  0  0  0  0  0
   43.0800   -7.3778   38.0634 H   0  0  0  0  0  0  0  0  0  0  0  0
   42.3202   -6.2788   37.1083 H   0  0  0  0  0  0  0  0  0  0  0  0
   44.2160   -7.2419   35.9776 H   0  0  0  0  0  0  0  0  0  0  0  0
   42.8215   -7.5496   35.1813 H   0  0  0  0  0  0  0  0  0  0  0  0
   44.1523   -9.4261   36.9427 H   0  0  0  0  0  0  0  0  0  0  0  0
   42.4528  -10.9827   36.3193 H   0  0  0  0  0  0  0  0  0  0  0  0
   41.7407   -9.8417   35.3902 H   0  0  0  0  0  0  0  0  0  0  0  0
   40.5867   -9.9705   37.4657 H   0  0  0  0  0  0  0  0  0  0  0  0
   41.9961   -9.7027   38.2667 H   0  0  0  0  0  0  0  0  0  0  0  0
   40.6320   -8.3757   44.3932 H   0  0  0  0  0  0  0  0  0  0  0  0
   39.2603   -7.7626   45.0329 H   0  0  0  0  0  0  0  0  0  0  0  0
   40.5966   -8.9820   46.5881 H   0  0  0  0  0  0  0  0  0  0  0  0
   40.2191   -7.6825   47.0701 H   0  0  0  0  0  0  0  0  0  0  0  0
   42.7566   -8.3145   46.0646 H   0  0  0  0  0  0  0  0  0  0  0  0
   42.4152   -8.0607   47.6436 H   0  0  0  0  0  0  0  0  0  0  0  0
   42.1927   -5.8094   47.3657 H   0  0  0  0  0  0  0  0  0  0  0  0
   43.4391   -6.1783   46.3397 H   0  0  0  0  0  0  0  0  0  0  0  0
   44.6909   -4.5138   42.7361 H   0  0  0  0  0  0  0  0  0  0  0  0
  1  2  2  0  0  0  0
  1  6  1  0  0  0  0
  1 48  1  0  0  0  0
  2  3  1  0  0  0  0
  2 49  1  0  0  0  0
  3  4  2  0  0  0  0
  3 46  1  0  0  0  0
  4  5  1  0  0  0  0
  4 50  1  0  0  0  0
  5  6  2  0  0  0  0
  5 51  1  0  0  0  0
  6  7  1  0  0  0  0
  7  8  1  0  0  0  0
  7 12  1  0  0  0  0
  8  9  1  0  0  0  0
  8 52  1  0  0  0  0
  8 53  1  0  0  0  0
  9 10  1  0  0  0  0
  9 54  1  0  0  0  0
  9 55  1  0  0  0  0
 10 11  1  0  0  0  0
 10 13  1  0  0  0  0
 10 56  1  0  0  0  0
 11 12  1  0  0  0  0
 11 57  1  0  0  0  0
 11 58  1  0  0  0  0
 12 59  1  0  0  0  0
 12 60  1  0  0  0  0
 13 14  1  0  0  0  0
 13 61  1  0  0  0  0
 13 62  1  0  0  0  0
 14 15  1  0  0  0  0
 14 45  1  0  0  0  0
 14 47  1  1  0  0  0
 15 16  1  0  0  0  0
 15 63  1  0  0  0  0
 15 64  1  0  0  0  0
 16 17  1  0  0  0  0
 16 20  1  0  0  0  0
 17 18  2  0  0  0  0
 17 44  1  0  0  0  0
 18 19  1  0  0  0  0
 18 41  1  0  0  0  0
 19 20  2  0  0  0  0
 19 21  1  0  0  0  0
 21 22  2  0  0  0  0
 21 26  1  0  0  0  0
 22 23  1  0  0  0  0
 22 65  1  0  0  0  0
 23 24  2  0  0  0  0
 23 66  1  0  0  0  0
 24 25  1  0  0  0  0
 24 37  1  0  0  0  0
 25 26  2  0  0  0  0
 25 27  1  0  0  0  0
 26 67  1  0  0  0  0
 27 28  1  0  0  0  0
 28 29  1  0  0  0  0
 28 68  1  0  0  0  0
 28 69  1  0  0  0  0
 29 30  1  0  0  0  0
 29 70  1  0  0  0  0
 29 71  1  0  0  0  0
 30 31  1  0  0  0  0
 30 35  1  0  0  0  0
 30 72  1  6  0  0  0
 31 32  1  0  0  0  0
 31 73  1  0  0  0  0
 31 74  1  0  0  0  0
 32 33  1  0  0  0  0
 32 75  1  0  0  0  0
 32 76  1  0  0  0  0
 33 34  1  0  0  0  0
 33 36  1  0  0  0  0
 33 77  1  1  0  0  0
 34 35  1  0  0  0  0
 34 78  1  0  0  0  0
 34 79  1  0  0  0  0
 35 80  1  0  0  0  0
 35 81  1  0  0  0  0
 37 38  1  0  0  0  0
 37 39  1  0  0  0  0
 37 40  1  0  0  0  0
 41 42  1  0  0  0  0
 41 82  1  0  0  0  0
 41 83  1  0  0  0  0
 42 43  1  0  0  0  0
 42 84  1  0  0  0  0
 42 85  1  0  0  0  0
 43 44  1  0  0  0  0
 43 86  1  0  0  0  0
 43 87  1  0  0  0  0
 44 88  1  0  0  0  0
 44 89  1  0  0  0  0
 45 90  1  0  0  0  0
M  CHG  3  10   1  30   1  42   1
M  END
