CatS_163:1_D
 OpenBabel12041818463D

 96100  0  0  1  0  0  0  0  0999 V2000
   35.8390   -3.7729   42.0224 C   0  0  0  0  0  0  0  0  0  0  0  0
   35.7382   -4.9213   41.0060 C   0  0  0  0  0  0  0  0  0  0  0  0
   36.9113   -4.9120   40.1162 N   0  0  0  0  0  0  0  0  0  0  0  0
   36.7273   -5.2209   38.6834 C   0  0  0  0  0  0  0  0  0  0  0  0
   36.0779   -6.5782   38.3509 C   0  0  0  0  0  0  0  0  0  0  0  0
   38.1382   -4.6963   40.6596 C   0  0  0  0  0  0  0  0  0  0  0  0
   38.6065   -3.5502   40.6826 O   0  0  0  0  0  0  0  0  0  0  0  0
   38.8680   -5.7223   41.1719 N   0  0  0  0  0  0  0  0  0  0  0  0
   38.7794   -7.1230   40.7028 C   0  0  0  0  0  0  0  0  0  0  0  0
   38.7054   -8.1495   41.8603 C   0  0  0  0  0  0  0  0  0  0  0  0
   39.5576   -7.7452   43.0568 C   0  0  0  0  0  0  0  0  0  0  0  0
   40.1174   -6.5333   43.1517 C   0  0  0  0  0  0  0  0  0  0  0  0
   40.8074   -6.5758   44.3826 C   0  0  0  0  0  0  0  0  0  0  0  0
   40.5998   -7.7545   44.9263 N   0  0  0  0  0  0  0  0  0  0  0  0
   39.8240   -8.5312   44.1370 N   0  0  0  0  0  0  0  0  0  0  0  0
   39.3355   -9.8628   44.5373 C   0  0  0  0  0  0  0  0  0  0  0  0
   39.8434  -10.5399   45.8254 C   0  0  2  0  0  0  0  0  0  0  0  0
   39.4506  -12.0333   45.8284 C   0  0  0  0  0  0  0  0  0  0  0  0
   39.7080  -12.7179   44.5090 N   0  3  0  0  0  0  0  0  0  0  0  0
   38.4353  -12.9215   43.7257 C   0  0  0  0  0  0  0  0  0  0  0  0
   37.5707  -14.0255   44.3677 C   0  0  0  0  0  0  0  0  0  0  0  0
   38.3741  -15.3375   44.4554 C   0  0  0  0  0  0  0  0  0  0  0  0
   39.6658  -15.1157   45.2662 C   0  0  0  0  0  0  0  0  0  0  0  0
   40.5098  -13.9920   44.6299 C   0  0  0  0  0  0  0  0  0  0  0  0
   39.2857   -9.8859   46.9748 O   0  0  0  0  0  0  0  0  0  0  0  0
   41.6150   -5.5506   45.0217 C   0  0  0  0  0  0  0  0  0  0  0  0
   42.1275   -5.7946   46.2812 C   0  0  0  0  0  0  0  0  0  0  0  0
   42.9047   -4.8573   46.9170 C   0  0  0  0  0  0  0  0  0  0  0  0
   43.2078   -3.6509   46.3199 C   0  0  0  0  0  0  0  0  0  0  0  0
   42.6986   -3.4093   45.0507 C   0  0  0  0  0  0  0  0  0  0  0  0
   41.9088   -4.3415   44.4143 C   0  0  0  0  0  0  0  0  0  0  0  0
   43.0676   -1.8904   44.1602 S   0  0  0  0  0  0  0  0  0  0  0  0
   43.9118   -2.3259   42.6188 C   0  0  0  0  0  0  0  0  0  0  0  0
   45.3358   -1.7383   42.6469 C   0  0  0  0  0  0  0  0  0  0  0  0
   46.2368   -2.2642   41.5577 N   0  3  2  0  0  0  0  0  0  0  0  0
   47.6767   -1.8701   41.7865 C   0  0  0  0  0  0  0  0  0  0  0  0
   48.6032   -2.4666   40.7076 C   0  0  0  0  0  0  0  0  0  0  0  0
   48.1290   -2.0283   39.3096 C   0  0  2  0  0  0  0  0  0  0  0  0
   46.6755   -2.4847   39.0847 C   0  0  0  0  0  0  0  0  0  0  0  0
   45.7595   -1.8908   40.1740 C   0  0  0  0  0  0  0  0  0  0  0  0
   48.9468   -2.6049   38.3447 F   0  0  0  0  0  0  0  0  0  0  0  0
   44.0918   -2.6898   47.1140 C   0  0  0  0  0  0  0  0  0  0  0  0
   43.4850   -1.4463   47.2531 F   0  0  0  0  0  0  0  0  0  0  0  0
   45.3093   -2.4905   46.4727 F   0  0  0  0  0  0  0  0  0  0  0  0
   44.3855   -3.1369   48.3993 F   0  0  0  0  0  0  0  0  0  0  0  0
   39.9678   -5.4303   42.1138 C   0  0  0  0  0  0  0  0  0  0  0  0
   40.8401  -10.4660   45.8590 H   0  0  0  0  0  0  0  0  0  0  0  0
   35.1777   -3.0635   41.7788 H   0  0  0  0  0  0  0  0  0  0  0  0
   35.6419   -4.1162   42.9407 H   0  0  0  0  0  0  0  0  0  0  0  0
   36.7635   -3.3917   42.0090 H   0  0  0  0  0  0  0  0  0  0  0  0
   34.9061   -4.8119   40.4622 H   0  0  0  0  0  0  0  0  0  0  0  0
   35.7076   -5.7919   41.4972 H   0  0  0  0  0  0  0  0  0  0  0  0
   37.6272   -5.1972   38.2480 H   0  0  0  0  0  0  0  0  0  0  0  0
   36.0863   -4.5322   38.3445 H   0  0  0  0  0  0  0  0  0  0  0  0
   35.8737   -7.0590   39.2036 H   0  0  0  0  0  0  0  0  0  0  0  0
   35.2330   -6.4315   37.8364 H   0  0  0  0  0  0  0  0  0  0  0  0
   36.7056   -7.1250   37.7968 H   0  0  0  0  0  0  0  0  0  0  0  0
   39.5853   -7.3251   40.1463 H   0  0  0  0  0  0  0  0  0  0  0  0
   37.9329   -7.2077   40.1772 H   0  0  0  0  0  0  0  0  0  0  0  0
   39.0213   -9.0368   41.5242 H   0  0  0  0  0  0  0  0  0  0  0  0
   37.7547   -8.1916   42.1674 H   0  0  0  0  0  0  0  0  0  0  0  0
   39.5494  -10.4839   43.7834 H   0  0  0  0  0  0  0  0  0  0  0  0
   38.3730   -9.6900   44.7463 H   0  0  0  0  0  0  0  0  0  0  0  0
   38.4767  -12.1068   46.0429 H   0  0  0  0  0  0  0  0  0  0  0  0
   40.0189  -12.4885   46.5140 H   0  0  0  0  0  0  0  0  0  0  0  0
   40.2139  -12.1397   44.0181 H   0  0  0  0  0  0  0  0  0  0  0  0
   38.6637  -13.1836   42.7880 H   0  0  0  0  0  0  0  0  0  0  0  0
   37.9166  -12.0667   43.7275 H   0  0  0  0  0  0  0  0  0  0  0  0
   36.7516  -14.1718   43.8130 H   0  0  0  0  0  0  0  0  0  0  0  0
   37.3057  -13.7413   45.2892 H   0  0  0  0  0  0  0  0  0  0  0  0
   38.6083  -15.6456   43.5333 H   0  0  0  0  0  0  0  0  0  0  0  0
   37.8177  -16.0313   44.9126 H   0  0  0  0  0  0  0  0  0  0  0  0
   40.1971  -15.9628   45.2815 H   0  0  0  0  0  0  0  0  0  0  0  0
   39.4229  -14.8504   46.1992 H   0  0  0  0  0  0  0  0  0  0  0  0
   41.3145  -13.8214   45.1987 H   0  0  0  0  0  0  0  0  0  0  0  0
   40.7878  -14.2824   43.7142 H   0  0  0  0  0  0  0  0  0  0  0  0
   39.0835  -10.5443   47.7082 H   0  0  0  0  0  0  0  0  0  0  0  0
   41.9305   -6.6635   46.7352 H   0  0  0  0  0  0  0  0  0  0  0  0
   43.2583   -5.0534   47.8316 H   0  0  0  0  0  0  0  0  0  0  0  0
   41.5441   -4.1430   43.5045 H   0  0  0  0  0  0  0  0  0  0  0  0
   43.4071   -1.9522   41.8406 H   0  0  0  0  0  0  0  0  0  0  0  0
   43.9587   -3.3206   42.5274 H   0  0  0  0  0  0  0  0  0  0  0  0
   45.7491   -1.9535   43.5318 H   0  0  0  0  0  0  0  0  0  0  0  0
   45.2459   -0.7537   42.4967 H   0  0  0  0  0  0  0  0  0  0  0  0
   46.2076   -3.1738   41.6085 H   0  0  0  0  0  0  0  0  0  0  0  0
   47.9664   -2.1988   42.6854 H   0  0  0  0  0  0  0  0  0  0  0  0
   47.7408   -0.8733   41.7377 H   0  0  0  0  0  0  0  0  0  0  0  0
   48.5863   -3.4646   40.7687 H   0  0  0  0  0  0  0  0  0  0  0  0
   49.5359   -2.1377   40.8560 H   0  0  0  0  0  0  0  0  0  0  0  0
   48.1766   -1.0317   39.2419 H   0  0  0  0  0  0  0  0  0  0  0  0
   46.6314   -3.4830   39.1200 H   0  0  0  0  0  0  0  0  0  0  0  0
   46.3668   -2.1648   38.1889 H   0  0  0  0  0  0  0  0  0  0  0  0
   45.7518   -0.8945   40.0886 H   0  0  0  0  0  0  0  0  0  0  0  0
   44.8397   -2.2620   40.0473 H   0  0  0  0  0  0  0  0  0  0  0  0
   39.7787   -4.5656   42.5792 H   0  0  0  0  0  0  0  0  0  0  0  0
   40.8200   -5.3714   41.5939 H   0  0  0  0  0  0  0  0  0  0  0  0
  1  2  1  0  0  0  0
  1 48  1  0  0  0  0
  1 49  1  0  0  0  0
  1 50  1  0  0  0  0
  2  3  1  0  0  0  0
  2 51  1  0  0  0  0
  2 52  1  0  0  0  0
  3  4  1  0  0  0  0
  3  6  1  0  0  0  0
  4  5  1  0  0  0  0
  4 53  1  0  0  0  0
  4 54  1  0  0  0  0
  5 55  1  0  0  0  0
  5 56  1  0  0  0  0
  5 57  1  0  0  0  0
  6  7  2  0  0  0  0
  6  8  1  0  0  0  0
  8  9  1  0  0  0  0
  8 46  1  0  0  0  0
  9 10  1  0  0  0  0
  9 58  1  0  0  0  0
  9 59  1  0  0  0  0
 10 11  1  0  0  0  0
 10 60  1  0  0  0  0
 10 61  1  0  0  0  0
 11 12  2  0  0  0  0
 11 15  1  0  0  0  0
 12 13  1  0  0  0  0
 12 46  1  0  0  0  0
 13 14  2  0  0  0  0
 13 26  1  0  0  0  0
 14 15  1  0  0  0  0
 15 16  1  0  0  0  0
 16 17  1  0  0  0  0
 16 62  1  0  0  0  0
 16 63  1  0  0  0  0
 17 18  1  0  0  0  0
 17 25  1  0  0  0  0
 17 47  1  1  0  0  0
 18 19  1  0  0  0  0
 18 64  1  0  0  0  0
 18 65  1  0  0  0  0
 19 20  1  0  0  0  0
 19 24  1  0  0  0  0
 19 66  1  0  0  0  0
 20 21  1  0  0  0  0
 20 67  1  0  0  0  0
 20 68  1  0  0  0  0
 21 22  1  0  0  0  0
 21 69  1  0  0  0  0
 21 70  1  0  0  0  0
 22 23  1  0  0  0  0
 22 71  1  0  0  0  0
 22 72  1  0  0  0  0
 23 24  1  0  0  0  0
 23 73  1  0  0  0  0
 23 74  1  0  0  0  0
 24 75  1  0  0  0  0
 24 76  1  0  0  0  0
 25 77  1  0  0  0  0
 26 27  2  0  0  0  0
 26 31  1  0  0  0  0
 27 28  1  0  0  0  0
 27 78  1  0  0  0  0
 28 29  2  0  0  0  0
 28 79  1  0  0  0  0
 29 30  1  0  0  0  0
 29 42  1  0  0  0  0
 30 31  2  0  0  0  0
 30 32  1  0  0  0  0
 31 80  1  0  0  0  0
 32 33  1  0  0  0  0
 33 34  1  0  0  0  0
 33 81  1  0  0  0  0
 33 82  1  0  0  0  0
 34 35  1  0  0  0  0
 34 83  1  0  0  0  0
 34 84  1  0  0  0  0
 35 36  1  0  0  0  0
 35 40  1  0  0  0  0
 35 85  1  1  0  0  0
 36 37  1  0  0  0  0
 36 86  1  0  0  0  0
 36 87  1  0  0  0  0
 37 38  1  0  0  0  0
 37 88  1  0  0  0  0
 37 89  1  0  0  0  0
 38 39  1  0  0  0  0
 38 41  1  0  0  0  0
 38 90  1  6  0  0  0
 39 40  1  0  0  0  0
 39 91  1  0  0  0  0
 39 92  1  0  0  0  0
 40 93  1  0  0  0  0
 40 94  1  0  0  0  0
 42 43  1  0  0  0  0
 42 44  1  0  0  0  0
 42 45  1  0  0  0  0
 46 95  1  0  0  0  0
 46 96  1  0  0  0  0
M  CHG  2  19   1  35   1
M  END
