CatS_294:1_D
 OpenBabel12041818463D

 84 89  0  0  0  0  0  0  0  0999 V2000
   43.7993   -9.1696   47.1859 C   0  0  0  0  0  0  0  0  0  0  0  0
   42.2719   -8.4207   47.8143 S   0  0  0  0  0  0  0  0  0  0  0  0
   42.6426   -7.4502   48.7906 O   0  0  0  0  0  0  0  0  0  0  0  0
   41.3855   -9.4700   48.1961 O   0  0  0  0  0  0  0  0  0  0  0  0
   41.5336   -7.5960   46.6264 N   0  0  0  0  0  0  0  0  0  0  0  0
   41.0281   -8.4185   45.5075 C   0  0  0  0  0  0  0  0  0  0  0  0
   39.9293   -7.6494   44.7431 C   0  0  0  0  0  0  0  0  0  0  0  0
   40.4446   -6.2915   44.2951 C   0  0  0  0  0  0  0  0  0  0  0  0
   41.4934   -5.7420   44.9170 C   0  0  0  0  0  0  0  0  0  0  0  0
   41.6848   -4.5230   44.2281 C   0  0  0  0  0  0  0  0  0  0  0  0
   40.7647   -4.4343   43.2961 N   0  0  0  0  0  0  0  0  0  0  0  0
   39.9523   -5.5137   43.2883 N   0  0  0  0  0  0  0  0  0  0  0  0
   38.7846   -5.6278   42.3936 C   0  0  0  0  0  0  0  0  0  0  0  0
   38.4552   -4.6379   41.2567 C   0  0  0  0  0  0  0  0  0  0  0  0
   37.9985   -5.4049   39.9980 C   0  0  0  0  0  0  0  0  0  0  0  0
   36.5690   -5.8777   40.0857 N   0  3  0  0  0  0  0  0  0  0  0  0
   36.4565   -7.3804   40.1410 C   0  0  0  0  0  0  0  0  0  0  0  0
   36.6942   -7.9713   38.7373 C   0  0  0  0  0  0  0  0  0  0  0  0
   35.7983   -7.3760   37.7778 O   0  0  0  0  0  0  0  0  0  0  0  0
   35.9799   -5.9516   37.6666 C   0  0  0  0  0  0  0  0  0  0  0  0
   35.6966   -5.2684   39.0180 C   0  0  0  0  0  0  0  0  0  0  0  0
   42.6699   -3.4741   44.4295 C   0  0  0  0  0  0  0  0  0  0  0  0
   42.6983   -2.6472   45.5473 C   0  0  0  0  0  0  0  0  0  0  0  0
   43.6599   -1.6669   45.6714 C   0  0  0  0  0  0  0  0  0  0  0  0
   44.6106   -1.4950   44.6936 C   0  0  0  0  0  0  0  0  0  0  0  0
   44.6003   -2.3223   43.5738 C   0  0  0  0  0  0  0  0  0  0  0  0
   43.6280   -3.3049   43.4567 C   0  0  0  0  0  0  0  0  0  0  0  0
   45.5585   -2.1900   42.5070 C   0  0  0  0  0  0  0  0  0  0  0  0
   46.4058   -2.1186   41.6323 C   0  0  0  0  0  0  0  0  0  0  0  0
   47.4389   -2.0912   40.6296 C   0  0  0  0  0  0  0  0  0  0  0  0
   48.7563   -1.9184   41.0382 C   0  0  0  0  0  0  0  0  0  0  0  0
   49.7702   -1.9554   40.1172 C   0  0  0  0  0  0  0  0  0  0  0  0
   49.4921   -2.1626   38.7818 C   0  0  0  0  0  0  0  0  0  0  0  0
   48.1816   -2.3066   38.3678 C   0  0  0  0  0  0  0  0  0  0  0  0
   47.1559   -2.2696   39.2793 C   0  0  0  0  0  0  0  0  0  0  0  0
   50.6502   -2.2679   37.8013 C   0  0  0  0  0  0  0  0  0  0  0  0
   50.3258   -3.0141   36.5352 N   0  3  0  0  0  0  0  0  0  0  0  0
   51.4145   -3.9376   36.0537 C   0  0  0  0  0  0  0  0  0  0  0  0
   50.9155   -5.3484   35.7990 C   0  0  0  0  0  0  0  0  0  0  0  0
   50.3169   -6.0646   36.7093 N   0  0  0  0  0  0  0  0  0  0  0  0
   49.9501   -7.3224   36.2494 C   0  0  0  0  0  0  0  0  0  0  0  0
   50.2566   -7.5922   34.9966 C   0  0  0  0  0  0  0  0  0  0  0  0
   51.0775   -6.2097   34.2517 S   0  0  0  0  0  0  0  0  0  0  0  0
   45.8120   -0.2494   44.8580 Cl  0  0  0  0  0  0  0  0  0  0  0  0
   42.2270   -6.4082   46.0770 C   0  0  0  0  0  0  0  0  0  0  0  0
   43.9037   -8.9343   46.2196 H   0  0  0  0  0  0  0  0  0  0  0  0
   44.5825   -8.8244   47.7031 H   0  0  0  0  0  0  0  0  0  0  0  0
   43.7540  -10.1633   47.2884 H   0  0  0  0  0  0  0  0  0  0  0  0
   40.6504   -9.2722   45.8660 H   0  0  0  0  0  0  0  0  0  0  0  0
   41.7816   -8.6212   44.8820 H   0  0  0  0  0  0  0  0  0  0  0  0
   39.1374   -7.5231   45.3406 H   0  0  0  0  0  0  0  0  0  0  0  0
   39.6670   -8.1774   43.9353 H   0  0  0  0  0  0  0  0  0  0  0  0
   37.9841   -5.6283   42.9931 H   0  0  0  0  0  0  0  0  0  0  0  0
   39.0356   -6.4384   41.8645 H   0  0  0  0  0  0  0  0  0  0  0  0
   39.2688   -4.0981   41.0406 H   0  0  0  0  0  0  0  0  0  0  0  0
   37.7168   -4.0330   41.5545 H   0  0  0  0  0  0  0  0  0  0  0  0
   38.5930   -6.1994   39.8734 H   0  0  0  0  0  0  0  0  0  0  0  0
   38.0578   -4.7742   39.2242 H   0  0  0  0  0  0  0  0  0  0  0  0
   36.2335   -5.5690   40.8747 H   0  0  0  0  0  0  0  0  0  0  0  0
   35.5443   -7.6354   40.4617 H   0  0  0  0  0  0  0  0  0  0  0  0
   37.1440   -7.7408   40.7714 H   0  0  0  0  0  0  0  0  0  0  0  0
   36.5411   -8.9591   38.7647 H   0  0  0  0  0  0  0  0  0  0  0  0
   37.6354   -7.7772   38.4612 H   0  0  0  0  0  0  0  0  0  0  0  0
   35.3546   -5.5911   36.9745 H   0  0  0  0  0  0  0  0  0  0  0  0
   36.9257   -5.7645   37.4013 H   0  0  0  0  0  0  0  0  0  0  0  0
   35.8902   -4.2900   38.9462 H   0  0  0  0  0  0  0  0  0  0  0  0
   34.7352   -5.3999   39.2600 H   0  0  0  0  0  0  0  0  0  0  0  0
   42.0149   -2.7647   46.2677 H   0  0  0  0  0  0  0  0  0  0  0  0
   43.6657   -1.0766   46.4786 H   0  0  0  0  0  0  0  0  0  0  0  0
   43.6233   -3.8995   42.6526 H   0  0  0  0  0  0  0  0  0  0  0  0
   48.9642   -1.7670   42.0045 H   0  0  0  0  0  0  0  0  0  0  0  0
   50.7168   -1.8316   40.4147 H   0  0  0  0  0  0  0  0  0  0  0  0
   47.9791   -2.4388   37.3974 H   0  0  0  0  0  0  0  0  0  0  0  0
   46.2091   -2.3705   38.9739 H   0  0  0  0  0  0  0  0  0  0  0  0
   51.4071   -2.7354   38.2579 H   0  0  0  0  0  0  0  0  0  0  0  0
   50.8802   -1.3333   37.5297 H   0  0  0  0  0  0  0  0  0  0  0  0
   50.0963   -2.4303   35.8745 H   0  0  0  0  0  0  0  0  0  0  0  0
   49.5710   -3.5049   36.6739 H   0  0  0  0  0  0  0  0  0  0  0  0
   52.1367   -3.9709   36.7446 H   0  0  0  0  0  0  0  0  0  0  0  0
   51.7539   -3.5772   35.1848 H   0  0  0  0  0  0  0  0  0  0  0  0
   49.4813   -7.9842   36.8343 H   0  0  0  0  0  0  0  0  0  0  0  0
   50.0547   -8.4546   34.5322 H   0  0  0  0  0  0  0  0  0  0  0  0
   43.1323   -6.6900   45.7593 H   0  0  0  0  0  0  0  0  0  0  0  0
   42.2724   -5.7338   46.8139 H   0  0  0  0  0  0  0  0  0  0  0  0
  1  2  1  0  0  0  0
  1 46  1  0  0  0  0
  1 47  1  0  0  0  0
  1 48  1  0  0  0  0
  2  3  2  0  0  0  0
  2  4  2  0  0  0  0
  2  5  1  0  0  0  0
  5  6  1  0  0  0  0
  5 45  1  0  0  0  0
  6  7  1  0  0  0  0
  6 49  1  0  0  0  0
  6 50  1  0  0  0  0
  7  8  1  0  0  0  0
  7 51  1  0  0  0  0
  7 52  1  0  0  0  0
  8  9  2  0  0  0  0
  8 12  1  0  0  0  0
  9 10  1  0  0  0  0
  9 45  1  0  0  0  0
 10 11  2  0  0  0  0
 10 22  1  0  0  0  0
 11 12  1  0  0  0  0
 12 13  1  0  0  0  0
 13 14  1  0  0  0  0
 13 53  1  0  0  0  0
 13 54  1  0  0  0  0
 14 15  1  0  0  0  0
 14 55  1  0  0  0  0
 14 56  1  0  0  0  0
 15 16  1  0  0  0  0
 15 57  1  0  0  0  0
 15 58  1  0  0  0  0
 16 17  1  0  0  0  0
 16 21  1  0  0  0  0
 16 59  1  0  0  0  0
 17 18  1  0  0  0  0
 17 60  1  0  0  0  0
 17 61  1  0  0  0  0
 18 19  1  0  0  0  0
 18 62  1  0  0  0  0
 18 63  1  0  0  0  0
 19 20  1  0  0  0  0
 20 21  1  0  0  0  0
 20 64  1  0  0  0  0
 20 65  1  0  0  0  0
 21 66  1  0  0  0  0
 21 67  1  0  0  0  0
 22 23  2  0  0  0  0
 22 27  1  0  0  0  0
 23 24  1  0  0  0  0
 23 68  1  0  0  0  0
 24 25  2  0  0  0  0
 24 69  1  0  0  0  0
 25 26  1  0  0  0  0
 25 44  1  0  0  0  0
 26 27  2  0  0  0  0
 26 28  1  0  0  0  0
 27 70  1  0  0  0  0
 28 29  3  0  0  0  0
 29 30  1  0  0  0  0
 30 31  2  0  0  0  0
 30 35  1  0  0  0  0
 31 32  1  0  0  0  0
 31 71  1  0  0  0  0
 32 33  2  0  0  0  0
 32 72  1  0  0  0  0
 33 34  1  0  0  0  0
 33 36  1  0  0  0  0
 34 35  2  0  0  0  0
 34 73  1  0  0  0  0
 35 74  1  0  0  0  0
 36 37  1  0  0  0  0
 36 75  1  0  0  0  0
 36 76  1  0  0  0  0
 37 38  1  0  0  0  0
 37 77  1  0  0  0  0
 37 78  1  0  0  0  0
 38 39  1  0  0  0  0
 38 79  1  0  0  0  0
 38 80  1  0  0  0  0
 39 40  2  0  0  0  0
 39 43  1  0  0  0  0
 40 41  1  0  0  0  0
 41 42  2  0  0  0  0
 41 81  1  0  0  0  0
 42 43  1  0  0  0  0
 42 82  1  0  0  0  0
 45 83  1  0  0  0  0
 45 84  1  0  0  0  0
M  CHG  2  16   1  37   1
M  END
