CatS_123:1_D
 OpenBabel12041818463D

 95100  0  0  1  0  0  0  0  0999 V2000
   38.7046   -9.3935   46.9902 C   0  0  0  0  0  0  0  0  0  0  0  0
   40.3542   -9.5459   46.2492 S   0  0  0  0  0  0  0  0  0  0  0  0
   41.2762   -9.9207   47.2678 O   0  0  0  0  0  0  0  0  0  0  0  0
   40.2434  -10.4104   45.1213 O   0  0  0  0  0  0  0  0  0  0  0  0
   40.8456   -8.1025   45.6830 N   0  0  0  0  0  0  0  0  0  0  0  0
   41.3129   -7.1644   46.7237 C   0  0  0  0  0  0  0  0  0  0  0  0
   42.1987   -6.0607   46.1101 C   0  0  0  0  0  0  0  0  0  0  0  0
   41.5539   -5.4625   44.8684 C   0  0  0  0  0  0  0  0  0  0  0  0
   40.5228   -6.0451   44.2570 C   0  0  0  0  0  0  0  0  0  0  0  0
   40.2157   -5.1447   43.2065 C   0  0  0  0  0  0  0  0  0  0  0  0
   41.0810   -4.1493   43.2385 N   0  0  0  0  0  0  0  0  0  0  0  0
   41.9543   -4.3186   44.2583 N   0  0  0  0  0  0  0  0  0  0  0  0
   43.2153   -3.5882   44.4492 C   0  0  0  0  0  0  0  0  0  0  0  0
   43.9397   -2.5367   43.5845 C   0  0  1  0  0  0  0  0  0  0  0  0
   45.4654   -2.8114   43.4437 C   0  0  0  0  0  0  0  0  0  0  0  0
   46.4468   -1.6630   43.2595 N   0  3  2  0  0  0  0  0  0  0  0  0
   46.3149   -0.5600   44.2908 C   0  0  0  0  0  0  0  0  0  0  0  0
   47.1254    0.7061   43.9795 C   0  0  0  0  0  0  0  0  0  0  0  0
   46.6820    1.2393   42.6072 C   0  0  2  0  0  0  0  0  0  0  0  0
   47.1293    0.1826   41.5741 C   0  0  0  0  0  0  0  0  0  0  0  0
   46.3791   -1.1481   41.8336 C   0  0  0  0  0  0  0  0  0  0  0  0
   47.0241    2.7175   42.4376 C   0  0  0  0  0  0  0  0  0  0  0  0
   48.2885    3.2563   42.4513 C   0  0  0  0  0  0  0  0  0  0  0  0
   48.4515    4.6138   42.2938 C   0  0  0  0  0  0  0  0  0  0  0  0
   47.4353    5.4807   42.1238 N   0  0  0  0  0  0  0  0  0  0  0  0
   46.2063    4.9336   42.1142 C   0  0  0  0  0  0  0  0  0  0  0  0
   45.9732    3.5880   42.2646 C   0  0  0  0  0  0  0  0  0  0  0  0
   44.3360    2.9938   42.2413 Cl  0  0  0  0  0  0  0  0  0  0  0  0
   49.6914    2.2517   42.6644 Cl  0  0  0  0  0  0  0  0  0  0  0  0
   43.3266   -2.4602   42.2889 O   0  0  0  0  0  0  0  0  0  0  0  0
   39.1382   -5.2352   42.2338 C   0  0  0  0  0  0  0  0  0  0  0  0
   38.0696   -4.3596   42.2933 C   0  0  0  0  0  0  0  0  0  0  0  0
   37.0329   -4.4526   41.3938 C   0  0  0  0  0  0  0  0  0  0  0  0
   37.0216   -5.4076   40.3963 C   0  0  0  0  0  0  0  0  0  0  0  0
   38.1072   -6.2711   40.3271 C   0  0  0  0  0  0  0  0  0  0  0  0
   39.1421   -6.1867   41.2299 C   0  0  0  0  0  0  0  0  0  0  0  0
   38.2472   -7.5418   39.0644 S   0  0  0  0  0  0  0  0  0  0  0  0
   40.0046   -7.7094   38.6568 C   0  0  0  0  0  0  0  0  0  0  0  0
   40.2004   -8.8287   37.6103 C   0  0  0  0  0  0  0  0  0  0  0  0
   41.4731   -8.7050   36.8083 N   0  3  1  0  0  0  0  0  0  0  0  0
   42.2792   -7.4681   37.1391 C   0  0  0  0  0  0  0  0  0  0  0  0
   43.7461   -7.5441   36.6553 C   0  0  0  0  0  0  0  0  0  0  0  0
   43.8679   -8.4897   35.4475 C   0  0  2  0  0  0  0  0  0  0  0  0
   43.4691   -9.9300   35.8419 C   0  0  0  0  0  0  0  0  0  0  0  0
   42.3030   -9.9623   36.8621 C   0  0  0  0  0  0  0  0  0  0  0  0
   45.1777   -8.4776   34.9818 F   0  0  0  0  0  0  0  0  0  0  0  0
   35.7950   -5.4250   39.4824 C   0  0  0  0  0  0  0  0  0  0  0  0
   35.2030   -6.6830   39.5051 F   0  0  0  0  0  0  0  0  0  0  0  0
   34.8192   -4.5097   39.8657 F   0  0  0  0  0  0  0  0  0  0  0  0
   36.0953   -5.1373   38.1562 F   0  0  0  0  0  0  0  0  0  0  0  0
   39.9539   -7.3770   44.7453 C   0  0  0  0  0  0  0  0  0  0  0  0
   43.8490   -1.6593   44.0556 H   0  0  0  0  0  0  0  0  0  0  0  0
   38.3997   -8.4442   46.9135 H   0  0  0  0  0  0  0  0  0  0  0  0
   38.0627   -9.9931   46.5122 H   0  0  0  0  0  0  0  0  0  0  0  0
   38.7424   -9.6593   47.9535 H   0  0  0  0  0  0  0  0  0  0  0  0
   41.8398   -7.6681   47.4082 H   0  0  0  0  0  0  0  0  0  0  0  0
   40.5160   -6.7345   47.1481 H   0  0  0  0  0  0  0  0  0  0  0  0
   43.0854   -6.4518   45.8635 H   0  0  0  0  0  0  0  0  0  0  0  0
   42.3121   -5.3337   46.7871 H   0  0  0  0  0  0  0  0  0  0  0  0
   43.8943   -4.3144   44.5574 H   0  0  0  0  0  0  0  0  0  0  0  0
   42.8720   -2.9488   45.1372 H   0  0  0  0  0  0  0  0  0  0  0  0
   45.5767   -3.4149   42.6542 H   0  0  0  0  0  0  0  0  0  0  0  0
   45.7112   -3.1709   44.3439 H   0  0  0  0  0  0  0  0  0  0  0  0
   47.2850   -2.0050   43.3683 H   0  0  0  0  0  0  0  0  0  0  0  0
   46.6186   -0.9185   45.1735 H   0  0  0  0  0  0  0  0  0  0  0  0
   45.3531   -0.2862   44.2912 H   0  0  0  0  0  0  0  0  0  0  0  0
   48.1012    0.4886   43.9613 H   0  0  0  0  0  0  0  0  0  0  0  0
   46.9666    1.3980   44.6838 H   0  0  0  0  0  0  0  0  0  0  0  0
   45.6947    1.3167   42.4688 H   0  0  0  0  0  0  0  0  0  0  0  0
   48.1148    0.0330   41.6540 H   0  0  0  0  0  0  0  0  0  0  0  0
   46.9168    0.5081   40.6527 H   0  0  0  0  0  0  0  0  0  0  0  0
   45.4166   -1.0141   41.5975 H   0  0  0  0  0  0  0  0  0  0  0  0
   46.8355   -1.8361   41.2694 H   0  0  0  0  0  0  0  0  0  0  0  0
   49.3825    4.9790   42.3063 H   0  0  0  0  0  0  0  0  0  0  0  0
   45.4200    5.5391   41.9910 H   0  0  0  0  0  0  0  0  0  0  0  0
   43.0357   -1.5209   42.0768 H   0  0  0  0  0  0  0  0  0  0  0  0
   38.0503   -3.6507   42.9984 H   0  0  0  0  0  0  0  0  0  0  0  0
   36.2682   -3.8122   41.4640 H   0  0  0  0  0  0  0  0  0  0  0  0
   39.9097   -6.8236   41.1590 H   0  0  0  0  0  0  0  0  0  0  0  0
   40.5182   -7.9335   39.4850 H   0  0  0  0  0  0  0  0  0  0  0  0
   40.3371   -6.8458   38.2777 H   0  0  0  0  0  0  0  0  0  0  0  0
   39.4251   -8.8097   36.9790 H   0  0  0  0  0  0  0  0  0  0  0  0
   40.2619   -9.6891   38.1161 H   0  0  0  0  0  0  0  0  0  0  0  0
   41.2152   -8.6285   35.9379 H   0  0  0  0  0  0  0  0  0  0  0  0
   42.2760   -7.3418   38.1311 H   0  0  0  0  0  0  0  0  0  0  0  0
   41.8515   -6.7006   36.6617 H   0  0  0  0  0  0  0  0  0  0  0  0
   44.3224   -7.8814   37.3997 H   0  0  0  0  0  0  0  0  0  0  0  0
   44.0430   -6.6299   36.3795 H   0  0  0  0  0  0  0  0  0  0  0  0
   43.2500   -8.1745   34.7271 H   0  0  0  0  0  0  0  0  0  0  0  0
   44.2632  -10.3859   36.2437 H   0  0  0  0  0  0  0  0  0  0  0  0
   43.1607  -10.3982   35.0138 H   0  0  0  0  0  0  0  0  0  0  0  0
   41.7166  -10.7472   36.6618 H   0  0  0  0  0  0  0  0  0  0  0  0
   42.6969  -10.0341   37.7785 H   0  0  0  0  0  0  0  0  0  0  0  0
   39.0848   -7.2008   45.2074 H   0  0  0  0  0  0  0  0  0  0  0  0
   39.8455   -7.9584   43.9389 H   0  0  0  0  0  0  0  0  0  0  0  0
  1  2  1  0  0  0  0
  1 53  1  0  0  0  0
  1 54  1  0  0  0  0
  1 55  1  0  0  0  0
  2  3  2  0  0  0  0
  2  4  2  0  0  0  0
  2  5  1  0  0  0  0
  5  6  1  0  0  0  0
  5 51  1  0  0  0  0
  6  7  1  0  0  0  0
  6 56  1  0  0  0  0
  6 57  1  0  0  0  0
  7  8  1  0  0  0  0
  7 58  1  0  0  0  0
  7 59  1  0  0  0  0
  8  9  2  0  0  0  0
  8 12  1  0  0  0  0
  9 10  1  0  0  0  0
  9 51  1  0  0  0  0
 10 11  2  0  0  0  0
 10 31  1  0  0  0  0
 11 12  1  0  0  0  0
 12 13  1  0  0  0  0
 13 14  1  0  0  0  0
 13 60  1  0  0  0  0
 13 61  1  0  0  0  0
 14 15  1  0  0  0  0
 14 30  1  0  0  0  0
 14 52  1  1  0  0  0
 15 16  1  0  0  0  0
 15 62  1  0  0  0  0
 15 63  1  0  0  0  0
 16 17  1  0  0  0  0
 16 21  1  0  0  0  0
 16 64  1  1  0  0  0
 17 18  1  0  0  0  0
 17 65  1  0  0  0  0
 17 66  1  0  0  0  0
 18 19  1  0  0  0  0
 18 67  1  0  0  0  0
 18 68  1  0  0  0  0
 19 20  1  0  0  0  0
 19 22  1  0  0  0  0
 19 69  1  1  0  0  0
 20 21  1  0  0  0  0
 20 70  1  0  0  0  0
 20 71  1  0  0  0  0
 21 72  1  0  0  0  0
 21 73  1  0  0  0  0
 22 23  2  0  0  0  0
 22 27  1  0  0  0  0
 23 24  1  0  0  0  0
 23 29  1  0  0  0  0
 24 25  2  0  0  0  0
 24 74  1  0  0  0  0
 25 26  1  0  0  0  0
 26 27  2  0  0  0  0
 26 75  1  0  0  0  0
 27 28  1  0  0  0  0
 30 76  1  0  0  0  0
 31 32  2  0  0  0  0
 31 36  1  0  0  0  0
 32 33  1  0  0  0  0
 32 77  1  0  0  0  0
 33 34  2  0  0  0  0
 33 78  1  0  0  0  0
 34 35  1  0  0  0  0
 34 47  1  0  0  0  0
 35 36  2  0  0  0  0
 35 37  1  0  0  0  0
 36 79  1  0  0  0  0
 37 38  1  0  0  0  0
 38 39  1  0  0  0  0
 38 80  1  0  0  0  0
 38 81  1  0  0  0  0
 39 40  1  0  0  0  0
 39 82  1  0  0  0  0
 39 83  1  0  0  0  0
 40 41  1  0  0  0  0
 40 45  1  0  0  0  0
 40 84  1  6  0  0  0
 41 42  1  0  0  0  0
 41 85  1  0  0  0  0
 41 86  1  0  0  0  0
 42 43  1  0  0  0  0
 42 87  1  0  0  0  0
 42 88  1  0  0  0  0
 43 44  1  0  0  0  0
 43 46  1  0  0  0  0
 43 89  1  6  0  0  0
 44 45  1  0  0  0  0
 44 90  1  0  0  0  0
 44 91  1  0  0  0  0
 45 92  1  0  0  0  0
 45 93  1  0  0  0  0
 47 48  1  0  0  0  0
 47 49  1  0  0  0  0
 47 50  1  0  0  0  0
 51 94  1  0  0  0  0
 51 95  1  0  0  0  0
M  CHG  2  16   1  40   1
M  END
