CatS_125:1_D
 OpenBabel12041818463D

104109  0  0  0  0  0  0  0  0999 V2000
   34.8162  -14.2656   45.4894 C   0  0  0  0  0  0  0  0  0  0  0  0
   36.1425  -15.0066   45.2450 C   0  0  0  0  0  0  0  0  0  0  0  0
   35.7885  -16.3565   44.5900 C   0  0  0  0  0  0  0  0  0  0  0  0
   36.7913  -15.2372   46.6237 C   0  0  0  0  0  0  0  0  0  0  0  0
   36.9649  -14.1713   44.3942 O   0  0  0  0  0  0  0  0  0  0  0  0
   38.3137  -14.3659   44.3668 C   0  0  0  0  0  0  0  0  0  0  0  0
   38.7615  -15.5012   44.2253 O   0  0  0  0  0  0  0  0  0  0  0  0
   39.0944  -13.2667   44.5063 N   0  0  0  0  0  0  0  0  0  0  0  0
   40.1210  -13.2206   45.5584 C   0  0  0  0  0  0  0  0  0  0  0  0
   39.9199  -11.9913   46.4675 C   0  0  0  0  0  0  0  0  0  0  0  0
   39.8112  -10.7286   45.6491 N   0  3  0  0  0  0  0  0  0  0  0  0
   38.7208  -10.8249   44.6106 C   0  0  0  0  0  0  0  0  0  0  0  0
   38.9258  -12.0452   43.6934 C   0  0  0  0  0  0  0  0  0  0  0  0
   39.6638   -9.4878   46.4982 C   0  0  0  0  0  0  0  0  0  0  0  0
   40.9856   -8.7735   46.8597 C   0  0  0  0  0  0  0  0  0  0  0  0
   41.9898   -8.6934   45.6954 C   0  0  0  0  0  0  0  0  0  0  0  0
   41.8219   -7.4330   44.9590 N   0  0  0  0  0  0  0  0  0  0  0  0
   40.8899   -7.0684   44.0447 C   0  0  0  0  0  0  0  0  0  0  0  0
   41.0509   -5.8147   43.6163 C   0  0  0  0  0  0  0  0  0  0  0  0
   42.1690   -5.3493   44.3480 C   0  0  0  0  0  0  0  0  0  0  0  0
   42.5944   -6.3308   45.1152 N   0  0  0  0  0  0  0  0  0  0  0  0
   42.7992   -4.0378   44.3209 C   0  0  0  0  0  0  0  0  0  0  0  0
   42.2742   -2.9994   45.0866 C   0  0  0  0  0  0  0  0  0  0  0  0
   42.8576   -1.7499   45.0757 C   0  0  0  0  0  0  0  0  0  0  0  0
   43.9782   -1.5195   44.3196 C   0  0  0  0  0  0  0  0  0  0  0  0
   44.5261   -2.5489   43.5566 C   0  0  0  0  0  0  0  0  0  0  0  0
   43.9212   -3.8022   43.5542 C   0  0  0  0  0  0  0  0  0  0  0  0
   45.7151   -2.2520   42.7983 C   0  0  0  0  0  0  0  0  0  0  0  0
   46.7226   -2.0906   42.1276 C   0  0  0  0  0  0  0  0  0  0  0  0
   47.9048   -2.0015   41.3089 C   0  0  0  0  0  0  0  0  0  0  0  0
   49.1941   -2.0268   41.8322 C   0  0  0  0  0  0  0  0  0  0  0  0
   50.2751   -1.9746   40.9855 C   0  0  0  0  0  0  0  0  0  0  0  0
   50.0965   -1.8819   39.6172 C   0  0  0  0  0  0  0  0  0  0  0  0
   48.8170   -1.8464   39.1026 C   0  0  0  0  0  0  0  0  0  0  0  0
   47.7299   -1.9081   39.9330 C   0  0  0  0  0  0  0  0  0  0  0  0
   51.2411   -1.8508   38.6117 C   0  0  0  0  0  0  0  0  0  0  0  0
   50.8934   -2.1913   37.1842 N   0  3  0  0  0  0  0  0  0  0  0  0
   51.8151   -3.1550   36.4721 C   0  0  0  0  0  0  0  0  0  0  0  0
   51.2233   -4.5521   36.3946 C   0  0  0  0  0  0  0  0  0  0  0  0
   51.4201   -5.3145   35.2640 C   0  0  0  0  0  0  0  0  0  0  0  0
   50.8810   -6.5770   35.1779 C   0  0  0  0  0  0  0  0  0  0  0  0
   50.1432   -7.0814   36.2248 C   0  0  0  0  0  0  0  0  0  0  0  0
   49.9509   -6.3247   37.3599 C   0  0  0  0  0  0  0  0  0  0  0  0
   50.4920   -5.0623   37.4438 C   0  0  0  0  0  0  0  0  0  0  0  0
   49.4536   -8.6730   36.1095 Cl  0  0  0  0  0  0  0  0  0  0  0  0
   44.7087    0.0624   44.3149 Cl  0  0  0  0  0  0  0  0  0  0  0  0
   40.1144   -5.1773   42.5996 C   0  0  0  0  0  0  0  0  0  0  0  0
   39.2984   -6.1510   41.8379 N   0  0  0  0  0  0  0  0  0  0  0  0
   38.7012   -7.1277   42.7788 C   0  0  0  0  0  0  0  0  0  0  0  0
   39.7752   -7.9563   43.5237 C   0  0  0  0  0  0  0  0  0  0  0  0
   38.3311   -5.4718   40.7167 S   0  0  0  0  0  0  0  0  0  0  0  0
   39.1173   -4.5658   39.9439 O   0  0  0  0  0  0  0  0  0  0  0  0
   37.6837   -6.5377   40.0227 O   0  0  0  0  0  0  0  0  0  0  0  0
   37.0528   -4.5314   41.5931 C   0  0  0  0  0  0  0  0  0  0  0  0
   34.8383  -13.3905   45.0060 H   0  0  0  0  0  0  0  0  0  0  0  0
   34.0537  -14.8177   45.1520 H   0  0  0  0  0  0  0  0  0  0  0  0
   34.6946  -14.1073   46.4693 H   0  0  0  0  0  0  0  0  0  0  0  0
   36.2048  -16.3966   43.6817 H   0  0  0  0  0  0  0  0  0  0  0  0
   36.1355  -17.1064   45.1531 H   0  0  0  0  0  0  0  0  0  0  0  0
   34.7953  -16.4418   44.5104 H   0  0  0  0  0  0  0  0  0  0  0  0
   37.6668  -14.7551   46.6562 H   0  0  0  0  0  0  0  0  0  0  0  0
   36.1890  -14.8905   47.3427 H   0  0  0  0  0  0  0  0  0  0  0  0
   36.9390  -16.2157   46.7667 H   0  0  0  0  0  0  0  0  0  0  0  0
   41.0253  -13.1732   45.1341 H   0  0  0  0  0  0  0  0  0  0  0  0
   40.0440  -14.0464   46.1171 H   0  0  0  0  0  0  0  0  0  0  0  0
   40.6968  -11.9137   47.0923 H   0  0  0  0  0  0  0  0  0  0  0  0
   39.0712  -12.1106   46.9827 H   0  0  0  0  0  0  0  0  0  0  0  0
   40.5927  -10.6460   45.1876 H   0  0  0  0  0  0  0  0  0  0  0  0
   38.7235   -9.9932   44.0555 H   0  0  0  0  0  0  0  0  0  0  0  0
   37.8452  -10.9304   45.0820 H   0  0  0  0  0  0  0  0  0  0  0  0
   38.1312  -12.1506   43.0957 H   0  0  0  0  0  0  0  0  0  0  0  0
   39.7470  -11.9038   43.1403 H   0  0  0  0  0  0  0  0  0  0  0  0
   39.2070   -9.7467   47.3492 H   0  0  0  0  0  0  0  0  0  0  0  0
   39.1414   -8.8368   45.9473 H   0  0  0  0  0  0  0  0  0  0  0  0
   41.4152   -9.2670   47.6160 H   0  0  0  0  0  0  0  0  0  0  0  0
   40.7498   -7.8327   47.1033 H   0  0  0  0  0  0  0  0  0  0  0  0
   41.8390   -9.4630   45.0749 H   0  0  0  0  0  0  0  0  0  0  0  0
   42.9181   -8.7300   46.0653 H   0  0  0  0  0  0  0  0  0  0  0  0
   41.4647   -3.1619   45.6508 H   0  0  0  0  0  0  0  0  0  0  0  0
   42.4626   -1.0102   45.6203 H   0  0  0  0  0  0  0  0  0  0  0  0
   44.3026   -4.5368   42.9929 H   0  0  0  0  0  0  0  0  0  0  0  0
   49.3334   -2.0828   42.8208 H   0  0  0  0  0  0  0  0  0  0  0  0
   51.2007   -2.0039   41.3628 H   0  0  0  0  0  0  0  0  0  0  0  0
   48.6823   -1.7750   38.1143 H   0  0  0  0  0  0  0  0  0  0  0  0
   46.8071   -1.8860   39.5484 H   0  0  0  0  0  0  0  0  0  0  0  0
   51.9363   -2.4999   38.9206 H   0  0  0  0  0  0  0  0  0  0  0  0
   51.5458   -0.8986   38.5880 H   0  0  0  0  0  0  0  0  0  0  0  0
   50.8812   -1.4108   36.7137 H   0  0  0  0  0  0  0  0  0  0  0  0
   50.0292   -2.4737   37.1397 H   0  0  0  0  0  0  0  0  0  0  0  0
   52.6847   -3.1963   36.9642 H   0  0  0  0  0  0  0  0  0  0  0  0
   51.9478   -2.8236   35.5380 H   0  0  0  0  0  0  0  0  0  0  0  0
   51.9568   -4.9490   34.5036 H   0  0  0  0  0  0  0  0  0  0  0  0
   51.0248   -7.1277   34.3557 H   0  0  0  0  0  0  0  0  0  0  0  0
   49.4183   -6.6926   38.1221 H   0  0  0  0  0  0  0  0  0  0  0  0
   50.3537   -4.5142   38.2687 H   0  0  0  0  0  0  0  0  0  0  0  0
   40.6637   -4.6491   41.9521 H   0  0  0  0  0  0  0  0  0  0  0  0
   39.4748   -4.6063   43.1143 H   0  0  0  0  0  0  0  0  0  0  0  0
   38.1094   -7.7498   42.2663 H   0  0  0  0  0  0  0  0  0  0  0  0
   38.1822   -6.6155   43.4632 H   0  0  0  0  0  0  0  0  0  0  0  0
   39.3484   -8.4318   44.2930 H   0  0  0  0  0  0  0  0  0  0  0  0
   40.1685   -8.6134   42.8807 H   0  0  0  0  0  0  0  0  0  0  0  0
   36.1615   -4.9476   41.4133 H   0  0  0  0  0  0  0  0  0  0  0  0
   37.2382   -4.5438   42.5757 H   0  0  0  0  0  0  0  0  0  0  0  0
   37.0535   -3.5837   41.2738 H   0  0  0  0  0  0  0  0  0  0  0  0
  1  2  1  0  0  0  0
  1 55  1  0  0  0  0
  1 56  1  0  0  0  0
  1 57  1  0  0  0  0
  2  3  1  0  0  0  0
  2  4  1  0  0  0  0
  2  5  1  0  0  0  0
  3 58  1  0  0  0  0
  3 59  1  0  0  0  0
  3 60  1  0  0  0  0
  4 61  1  0  0  0  0
  4 62  1  0  0  0  0
  4 63  1  0  0  0  0
  5  6  1  0  0  0  0
  6  7  2  0  0  0  0
  6  8  1  0  0  0  0
  8  9  1  0  0  0  0
  8 13  1  0  0  0  0
  9 10  1  0  0  0  0
  9 64  1  0  0  0  0
  9 65  1  0  0  0  0
 10 11  1  0  0  0  0
 10 66  1  0  0  0  0
 10 67  1  0  0  0  0
 11 12  1  0  0  0  0
 11 14  1  0  0  0  0
 11 68  1  0  0  0  0
 12 13  1  0  0  0  0
 12 69  1  0  0  0  0
 12 70  1  0  0  0  0
 13 71  1  0  0  0  0
 13 72  1  0  0  0  0
 14 15  1  0  0  0  0
 14 73  1  0  0  0  0
 14 74  1  0  0  0  0
 15 16  1  0  0  0  0
 15 75  1  0  0  0  0
 15 76  1  0  0  0  0
 16 17  1  0  0  0  0
 16 77  1  0  0  0  0
 16 78  1  0  0  0  0
 17 18  1  0  0  0  0
 17 21  1  0  0  0  0
 18 19  2  0  0  0  0
 18 50  1  0  0  0  0
 19 20  1  0  0  0  0
 19 47  1  0  0  0  0
 20 21  2  0  0  0  0
 20 22  1  0  0  0  0
 22 23  2  0  0  0  0
 22 27  1  0  0  0  0
 23 24  1  0  0  0  0
 23 79  1  0  0  0  0
 24 25  2  0  0  0  0
 24 80  1  0  0  0  0
 25 26  1  0  0  0  0
 25 46  1  0  0  0  0
 26 27  2  0  0  0  0
 26 28  1  0  0  0  0
 27 81  1  0  0  0  0
 28 29  3  0  0  0  0
 29 30  1  0  0  0  0
 30 31  2  0  0  0  0
 30 35  1  0  0  0  0
 31 32  1  0  0  0  0
 31 82  1  0  0  0  0
 32 33  2  0  0  0  0
 32 83  1  0  0  0  0
 33 34  1  0  0  0  0
 33 36  1  0  0  0  0
 34 35  2  0  0  0  0
 34 84  1  0  0  0  0
 35 85  1  0  0  0  0
 36 37  1  0  0  0  0
 36 86  1  0  0  0  0
 36 87  1  0  0  0  0
 37 38  1  0  0  0  0
 37 88  1  0  0  0  0
 37 89  1  0  0  0  0
 38 39  1  0  0  0  0
 38 90  1  0  0  0  0
 38 91  1  0  0  0  0
 39 40  2  0  0  0  0
 39 44  1  0  0  0  0
 40 41  1  0  0  0  0
 40 92  1  0  0  0  0
 41 42  2  0  0  0  0
 41 93  1  0  0  0  0
 42 43  1  0  0  0  0
 42 45  1  0  0  0  0
 43 44  2  0  0  0  0
 43 94  1  0  0  0  0
 44 95  1  0  0  0  0
 47 48  1  0  0  0  0
 47 96  1  0  0  0  0
 47 97  1  0  0  0  0
 48 49  1  0  0  0  0
 48 51  1  0  0  0  0
 49 50  1  0  0  0  0
 49 98  1  0  0  0  0
 49 99  1  0  0  0  0
 50100  1  0  0  0  0
 50101  1  0  0  0  0
 51 52  2  0  0  0  0
 51 53  2  0  0  0  0
 51 54  1  0  0  0  0
 54102  1  0  0  0  0
 54103  1  0  0  0  0
 54104  1  0  0  0  0
M  CHG  2  11   1  37   1
M  END
