CatS_412:1_D
 OpenBabel12041818463D

 86 90  0  0  1  0  0  0  0  0999 V2000
   35.7139   -5.7006   37.6139 C   0  0  0  0  0  0  0  0  0  0  0  0
   35.8355   -5.5119   39.1409 C   0  0  1  0  0  0  0  0  0  0  0  0
   35.3281   -6.7866   39.8458 C   0  0  0  0  0  0  0  0  0  0  0  0
   36.2364   -7.8844   39.6337 O   0  0  0  0  0  0  0  0  0  0  0  0
   37.5438   -7.6281   40.1801 C   0  0  0  0  0  0  0  0  0  0  0  0
   38.1831   -6.3858   39.5289 C   0  0  0  0  0  0  0  0  0  0  0  0
   37.2423   -5.2054   39.6174 N   0  3  2  0  0  0  0  0  0  0  0  0
   37.2817   -4.5005   40.9538 C   0  0  0  0  0  0  0  0  0  0  0  0
   38.7080   -4.2927   41.5047 C   0  0  0  0  0  0  0  0  0  0  0  0
   39.0328   -5.3911   42.5340 C   0  0  0  0  0  0  0  0  0  0  0  0
   40.0899   -5.2423   43.5512 N   0  0  0  0  0  0  0  0  0  0  0  0
   40.6147   -6.1003   44.4720 C   0  0  0  0  0  0  0  0  0  0  0  0
   41.6756   -5.5903   45.1078 C   0  0  0  0  0  0  0  0  0  0  0  0
   41.8141   -4.3007   44.5458 C   0  0  0  0  0  0  0  0  0  0  0  0
   40.8674   -4.1418   43.6499 N   0  0  0  0  0  0  0  0  0  0  0  0
   42.7878   -3.2589   44.8310 C   0  0  0  0  0  0  0  0  0  0  0  0
   42.5790   -2.2835   45.7999 C   0  0  0  0  0  0  0  0  0  0  0  0
   43.5344   -1.3229   46.0534 C   0  0  0  0  0  0  0  0  0  0  0  0
   44.7125   -1.3164   45.3480 C   0  0  0  0  0  0  0  0  0  0  0  0
   44.9361   -2.2825   44.3718 C   0  0  0  0  0  0  0  0  0  0  0  0
   43.9698   -3.2482   44.1226 C   0  0  0  0  0  0  0  0  0  0  0  0
   46.1655   -2.2799   43.6225 C   0  0  0  0  0  0  0  0  0  0  0  0
   47.2073   -2.2785   42.9882 C   0  0  0  0  0  0  0  0  0  0  0  0
   48.4361   -2.2779   42.2381 C   0  0  0  0  0  0  0  0  0  0  0  0
   49.6367   -1.9543   42.8613 C   0  0  0  0  0  0  0  0  0  0  0  0
   50.7999   -1.9628   42.1372 C   0  0  0  0  0  0  0  0  0  0  0  0
   50.7901   -2.2874   40.7966 C   0  0  0  0  0  0  0  0  0  0  0  0
   49.5976   -2.6127   40.1497 C   0  0  0  0  0  0  0  0  0  0  0  0
   48.4280   -2.6009   40.8890 C   0  0  0  0  0  0  0  0  0  0  0  0
   49.5187   -2.9601   38.7057 C   0  0  0  0  0  0  0  0  0  0  0  0
   48.4638   -2.6906   38.1343 O   0  0  0  0  0  0  0  0  0  0  0  0
   50.5685   -3.5505   38.0960 N   0  0  0  0  0  0  0  0  0  0  0  0
   50.5288   -3.8716   36.6614 C   0  0  0  0  0  0  0  0  0  0  0  0
   50.9426   -2.6426   35.8279 C   0  0  0  0  0  0  0  0  0  0  0  0
   52.3280   -2.1120   36.2386 C   0  0  0  0  0  0  0  0  0  0  0  0
   52.6301   -0.8674   35.5911 O   0  0  0  0  0  0  0  0  0  0  0  0
   52.3036   -2.2613   39.9375 Cl  0  0  0  0  0  0  0  0  0  0  0  0
   45.9175   -0.1049   45.6709 Cl  0  0  0  0  0  0  0  0  0  0  0  0
   42.4856   -6.3143   46.1738 C   0  0  0  0  0  0  0  0  0  0  0  0
   41.9845   -7.6635   46.5056 N   0  0  0  0  0  0  0  0  0  0  0  0
   40.6341   -8.0956   46.0938 C   0  0  0  0  0  0  0  0  0  0  0  0
   40.0993   -7.4999   44.7696 C   0  0  0  0  0  0  0  0  0  0  0  0
   42.7682   -8.4720   47.2451 C   0  0  0  0  0  0  0  0  0  0  0  0
   43.9233   -8.2157   47.5588 O   0  0  0  0  0  0  0  0  0  0  0  0
   42.2832   -9.7711   47.7754 C   0  0  0  0  0  0  0  0  0  0  0  0
   41.1092   -9.9750   48.0500 O   0  0  0  0  0  0  0  0  0  0  0  0
   43.2589  -10.6721   47.9476 N   0  0  0  0  0  0  0  0  0  0  0  0
   35.2799   -4.7138   39.3742 H   0  0  0  0  0  0  0  0  0  0  0  0
   34.8071   -5.3988   37.3196 H   0  0  0  0  0  0  0  0  0  0  0  0
   36.4158   -5.1605   37.1497 H   0  0  0  0  0  0  0  0  0  0  0  0
   35.8400   -6.6655   37.3829 H   0  0  0  0  0  0  0  0  0  0  0  0
   34.4280   -7.0276   39.4827 H   0  0  0  0  0  0  0  0  0  0  0  0
   35.2676   -6.6073   40.8278 H   0  0  0  0  0  0  0  0  0  0  0  0
   38.1288   -8.4227   40.0178 H   0  0  0  0  0  0  0  0  0  0  0  0
   37.4504   -7.4586   41.1612 H   0  0  0  0  0  0  0  0  0  0  0  0
   38.3830   -6.5806   38.5687 H   0  0  0  0  0  0  0  0  0  0  0  0
   39.0292   -6.1633   40.0134 H   0  0  0  0  0  0  0  0  0  0  0  0
   37.5595   -4.5975   39.0162 H   0  0  0  0  0  0  0  0  0  0  0  0
   36.7618   -5.0430   41.6137 H   0  0  0  0  0  0  0  0  0  0  0  0
   36.8883   -3.5916   40.8159 H   0  0  0  0  0  0  0  0  0  0  0  0
   38.7695   -3.3954   41.9419 H   0  0  0  0  0  0  0  0  0  0  0  0
   39.3640   -4.3423   40.7515 H   0  0  0  0  0  0  0  0  0  0  0  0
   39.2670   -6.2069   42.0052 H   0  0  0  0  0  0  0  0  0  0  0  0
   38.2079   -5.3893   43.0992 H   0  0  0  0  0  0  0  0  0  0  0  0
   41.7246   -2.2789   46.3195 H   0  0  0  0  0  0  0  0  0  0  0  0
   43.3690   -0.6283   46.7534 H   0  0  0  0  0  0  0  0  0  0  0  0
   44.1333   -3.9428   43.4220 H   0  0  0  0  0  0  0  0  0  0  0  0
   49.6508   -1.7168   43.8325 H   0  0  0  0  0  0  0  0  0  0  0  0
   51.6638   -1.7317   42.5848 H   0  0  0  0  0  0  0  0  0  0  0  0
   47.5624   -2.8291   40.4432 H   0  0  0  0  0  0  0  0  0  0  0  0
   51.2917   -3.7464   38.5587 H   0  0  0  0  0  0  0  0  0  0  0  0
   49.6016   -4.1481   36.4089 H   0  0  0  0  0  0  0  0  0  0  0  0
   51.1675   -4.6189   36.4771 H   0  0  0  0  0  0  0  0  0  0  0  0
   50.2648   -1.9189   35.9577 H   0  0  0  0  0  0  0  0  0  0  0  0
   50.9899   -2.9200   34.8684 H   0  0  0  0  0  0  0  0  0  0  0  0
   53.0225   -2.7872   35.9899 H   0  0  0  0  0  0  0  0  0  0  0  0
   52.3231   -1.9562   37.2264 H   0  0  0  0  0  0  0  0  0  0  0  0
   51.8284   -0.5039   35.1059 H   0  0  0  0  0  0  0  0  0  0  0  0
   42.4763   -5.7604   47.0064 H   0  0  0  0  0  0  0  0  0  0  0  0
   43.4057   -6.4355   45.8012 H   0  0  0  0  0  0  0  0  0  0  0  0
   39.9970   -7.8454   46.8227 H   0  0  0  0  0  0  0  0  0  0  0  0
   40.7064   -9.0798   45.9324 H   0  0  0  0  0  0  0  0  0  0  0  0
   40.3689   -8.1027   44.0186 H   0  0  0  0  0  0  0  0  0  0  0  0
   39.1063   -7.4296   44.8643 H   0  0  0  0  0  0  0  0  0  0  0  0
   44.0889  -10.4752   47.7324 H   0  0  0  0  0  0  0  0  0  0  0  0
   43.0685  -11.4654   48.2770 H   0  0  0  0  0  0  0  0  0  0  0  0
  1  2  1  0  0  0  0
  1 49  1  0  0  0  0
  1 50  1  0  0  0  0
  1 51  1  0  0  0  0
  2  3  1  0  0  0  0
  2  7  1  0  0  0  0
  2 48  1  1  0  0  0
  3  4  1  0  0  0  0
  3 52  1  0  0  0  0
  3 53  1  0  0  0  0
  4  5  1  0  0  0  0
  5  6  1  0  0  0  0
  5 54  1  0  0  0  0
  5 55  1  0  0  0  0
  6  7  1  0  0  0  0
  6 56  1  0  0  0  0
  6 57  1  0  0  0  0
  7  8  1  0  0  0  0
  7 58  1  6  0  0  0
  8  9  1  0  0  0  0
  8 59  1  0  0  0  0
  8 60  1  0  0  0  0
  9 10  1  0  0  0  0
  9 61  1  0  0  0  0
  9 62  1  0  0  0  0
 10 11  1  0  0  0  0
 10 63  1  0  0  0  0
 10 64  1  0  0  0  0
 11 12  1  0  0  0  0
 11 15  1  0  0  0  0
 12 13  2  0  0  0  0
 12 42  1  0  0  0  0
 13 14  1  0  0  0  0
 13 39  1  0  0  0  0
 14 15  2  0  0  0  0
 14 16  1  0  0  0  0
 16 17  2  0  0  0  0
 16 21  1  0  0  0  0
 17 18  1  0  0  0  0
 17 65  1  0  0  0  0
 18 19  2  0  0  0  0
 18 66  1  0  0  0  0
 19 20  1  0  0  0  0
 19 38  1  0  0  0  0
 20 21  2  0  0  0  0
 20 22  1  0  0  0  0
 21 67  1  0  0  0  0
 22 23  3  0  0  0  0
 23 24  1  0  0  0  0
 24 25  2  0  0  0  0
 24 29  1  0  0  0  0
 25 26  1  0  0  0  0
 25 68  1  0  0  0  0
 26 27  2  0  0  0  0
 26 69  1  0  0  0  0
 27 28  1  0  0  0  0
 27 37  1  0  0  0  0
 28 29  2  0  0  0  0
 28 30  1  0  0  0  0
 29 70  1  0  0  0  0
 30 31  2  0  0  0  0
 30 32  1  0  0  0  0
 32 33  1  0  0  0  0
 32 71  1  0  0  0  0
 33 34  1  0  0  0  0
 33 72  1  0  0  0  0
 33 73  1  0  0  0  0
 34 35  1  0  0  0  0
 34 74  1  0  0  0  0
 34 75  1  0  0  0  0
 35 36  1  0  0  0  0
 35 76  1  0  0  0  0
 35 77  1  0  0  0  0
 36 78  1  0  0  0  0
 39 40  1  0  0  0  0
 39 79  1  0  0  0  0
 39 80  1  0  0  0  0
 40 41  1  0  0  0  0
 40 43  1  0  0  0  0
 41 42  1  0  0  0  0
 41 81  1  0  0  0  0
 41 82  1  0  0  0  0
 42 83  1  0  0  0  0
 42 84  1  0  0  0  0
 43 44  2  0  0  0  0
 43 45  1  0  0  0  0
 45 46  2  0  0  0  0
 45 47  1  0  0  0  0
 47 85  1  0  0  0  0
 47 86  1  0  0  0  0
M  CHG  1   7   1
M  END
