CatS_312:1_D
 OpenBabel12041818463D

101106  0  0  1  0  0  0  0  0999 V2000
   55.4652   -0.9066   36.1525 C   0  0  0  0  0  0  0  0  0  0  0  0
   54.6674   -1.4026   34.9323 C   0  0  0  0  0  0  0  0  0  0  0  0
   55.3803   -0.9980   33.6272 C   0  0  0  0  0  0  0  0  0  0  0  0
   54.6666   -2.9414   34.9839 C   0  0  0  0  0  0  0  0  0  0  0  0
   53.2920   -0.9554   34.9808 O   0  0  0  0  0  0  0  0  0  0  0  0
   52.6833   -0.7686   36.1882 C   0  0  0  0  0  0  0  0  0  0  0  0
   52.6679    0.3440   36.7104 O   0  0  0  0  0  0  0  0  0  0  0  0
   52.1307   -1.8698   36.7539 N   0  0  0  0  0  0  0  0  0  0  0  0
   50.9879   -2.5562   36.1136 C   0  0  0  0  0  0  0  0  0  0  0  0
   50.5771   -3.9274   36.6821 C   0  0  0  0  0  0  0  0  0  0  0  0
   50.7252   -3.9488   38.2165 C   0  0  0  0  0  0  0  0  0  0  0  0
   52.2272   -3.7655   38.5328 C   0  0  0  0  0  0  0  0  0  0  0  0
   52.7482   -2.4186   37.9771 C   0  0  0  0  0  0  0  0  0  0  0  0
   49.7782   -2.8749   38.8266 C   0  0  2  0  0  0  0  0  0  0  0  0
   49.9177   -2.7016   40.3590 C   0  0  0  0  0  0  0  0  0  0  0  0
   48.9757   -1.6041   40.9191 C   0  0  0  0  0  0  0  0  0  0  0  0
   47.7155   -1.4252   40.1033 N   0  3  1  0  0  0  0  0  0  0  0  0
   47.2789   -2.7258   39.4877 C   0  0  0  0  0  0  0  0  0  0  0  0
   48.3041   -3.1801   38.4266 C   0  0  0  0  0  0  0  0  0  0  0  0
   46.6147   -0.7331   40.8702 C   0  0  0  0  0  0  0  0  0  0  0  0
   45.5881   -1.6601   41.5615 C   0  0  1  0  0  0  0  0  0  0  0  0
   45.4064   -1.3314   43.0602 C   0  0  0  0  0  0  0  0  0  0  0  0
   44.3440   -1.9050   43.9125 N   0  0  0  0  0  0  0  0  0  0  0  0
   43.9063   -1.6041   45.1691 C   0  0  0  0  0  0  0  0  0  0  0  0
   43.0402   -2.5005   45.6490 C   0  0  0  0  0  0  0  0  0  0  0  0
   42.8860   -3.4223   44.5867 C   0  0  0  0  0  0  0  0  0  0  0  0
   43.6747   -3.0446   43.6030 N   0  0  0  0  0  0  0  0  0  0  0  0
   42.0217   -4.5920   44.5029 C   0  0  0  0  0  0  0  0  0  0  0  0
   42.1160   -5.5805   45.4729 C   0  0  0  0  0  0  0  0  0  0  0  0
   41.3048   -6.6919   45.4264 C   0  0  0  0  0  0  0  0  0  0  0  0
   40.3954   -6.8474   44.4093 C   0  0  0  0  0  0  0  0  0  0  0  0
   40.2769   -5.8684   43.4251 C   0  0  0  0  0  0  0  0  0  0  0  0
   41.0921   -4.7382   43.4878 C   0  0  0  0  0  0  0  0  0  0  0  0
   39.3080   -6.0622   42.3718 C   0  0  0  0  0  0  0  0  0  0  0  0
   38.4941   -6.1995   41.4685 C   0  0  0  0  0  0  0  0  0  0  0  0
   37.5406   -6.3457   40.3952 C   0  0  0  0  0  0  0  0  0  0  0  0
   36.7585   -5.2248   40.1199 C   0  0  0  0  0  0  0  0  0  0  0  0
   35.8393   -5.2764   39.1169 C   0  0  0  0  0  0  0  0  0  0  0  0
   35.7095   -6.4425   38.3992 C   0  0  0  0  0  0  0  0  0  0  0  0
   36.5049   -7.5151   38.7153 C   0  0  0  0  0  0  0  0  0  0  0  0
   37.4256   -7.5084   39.7006 N   0  0  0  0  0  0  0  0  0  0  0  0
   39.3938   -8.2721   44.3569 Cl  0  0  0  0  0  0  0  0  0  0  0  0
   42.4519   -2.4118   47.0557 C   0  0  0  0  0  0  0  0  0  0  0  0
   43.2361   -1.5682   47.9903 N   0  0  0  0  0  0  0  0  0  0  0  0
   43.5192   -0.2729   47.3339 C   0  0  0  0  0  0  0  0  0  0  0  0
   44.3173   -0.4044   46.0093 C   0  0  0  0  0  0  0  0  0  0  0  0
   42.6639   -1.5485   49.5304 S   0  0  0  0  0  0  0  0  0  0  0  0
   42.5877   -2.8909   50.0117 O   0  0  0  0  0  0  0  0  0  0  0  0
   43.5403   -0.7661   50.3455 O   0  0  0  0  0  0  0  0  0  0  0  0
   41.0060   -0.8080   49.6039 C   0  0  0  0  0  0  0  0  0  0  0  0
   44.3525   -1.4951   40.8557 O   0  0  0  0  0  0  0  0  0  0  0  0
   45.9106   -2.6062   41.5307 H   0  0  0  0  0  0  0  0  0  0  0  0
   54.8609   -0.3680   36.7396 H   0  0  0  0  0  0  0  0  0  0  0  0
   55.8217   -1.6889   36.6636 H   0  0  0  0  0  0  0  0  0  0  0  0
   56.2312   -0.3413   35.8468 H   0  0  0  0  0  0  0  0  0  0  0  0
   54.7396   -0.4915   33.0500 H   0  0  0  0  0  0  0  0  0  0  0  0
   56.1705   -0.4228   33.8383 H   0  0  0  0  0  0  0  0  0  0  0  0
   55.6929   -1.8172   33.1465 H   0  0  0  0  0  0  0  0  0  0  0  0
   53.7219   -3.2649   35.0384 H   0  0  0  0  0  0  0  0  0  0  0  0
   55.1009   -3.3073   34.1608 H   0  0  0  0  0  0  0  0  0  0  0  0
   55.1765   -3.2516   35.7863 H   0  0  0  0  0  0  0  0  0  0  0  0
   51.2159   -2.6849   35.1485 H   0  0  0  0  0  0  0  0  0  0  0  0
   50.2024   -1.9625   36.2880 H   0  0  0  0  0  0  0  0  0  0  0  0
   51.1585   -4.6368   36.2839 H   0  0  0  0  0  0  0  0  0  0  0  0
   49.6191   -4.0967   36.4509 H   0  0  0  0  0  0  0  0  0  0  0  0
   50.4448   -4.8125   38.6354 H   0  0  0  0  0  0  0  0  0  0  0  0
   52.7441   -4.5150   38.1194 H   0  0  0  0  0  0  0  0  0  0  0  0
   52.3470   -3.7677   39.5256 H   0  0  0  0  0  0  0  0  0  0  0  0
   52.6330   -1.7356   38.6984 H   0  0  0  0  0  0  0  0  0  0  0  0
   53.6895   -2.6181   37.7048 H   0  0  0  0  0  0  0  0  0  0  0  0
   50.0595   -1.9966   38.4398 H   0  0  0  0  0  0  0  0  0  0  0  0
   50.8635   -2.4552   40.5708 H   0  0  0  0  0  0  0  0  0  0  0  0
   49.6623   -3.5682   40.7877 H   0  0  0  0  0  0  0  0  0  0  0  0
   49.4720   -0.7359   40.9359 H   0  0  0  0  0  0  0  0  0  0  0  0
   48.6961   -1.8927   41.8348 H   0  0  0  0  0  0  0  0  0  0  0  0
   47.9325   -0.8755   39.4090 H   0  0  0  0  0  0  0  0  0  0  0  0
   46.3843   -2.6060   39.0572 H   0  0  0  0  0  0  0  0  0  0  0  0
   47.2187   -3.4224   40.2025 H   0  0  0  0  0  0  0  0  0  0  0  0
   48.2081   -4.1660   38.2901 H   0  0  0  0  0  0  0  0  0  0  0  0
   48.1112   -2.6667   37.5903 H   0  0  0  0  0  0  0  0  0  0  0  0
   46.1186   -0.1440   40.2324 H   0  0  0  0  0  0  0  0  0  0  0  0
   47.0705   -0.2372   41.6094 H   0  0  0  0  0  0  0  0  0  0  0  0
   45.2886   -0.3395   43.1082 H   0  0  0  0  0  0  0  0  0  0  0  0
   46.2159   -1.7715   43.4488 H   0  0  0  0  0  0  0  0  0  0  0  0
   42.7807   -5.4843   46.2139 H   0  0  0  0  0  0  0  0  0  0  0  0
   41.3783   -7.3906   46.1380 H   0  0  0  0  0  0  0  0  0  0  0  0
   41.0041   -4.0257   42.7917 H   0  0  0  0  0  0  0  0  0  0  0  0
   36.8719   -4.3881   40.6557 H   0  0  0  0  0  0  0  0  0  0  0  0
   35.2695   -4.4821   38.9062 H   0  0  0  0  0  0  0  0  0  0  0  0
   35.0438   -6.5078   37.6560 H   0  0  0  0  0  0  0  0  0  0  0  0
   36.3949   -8.3538   38.1820 H   0  0  0  0  0  0  0  0  0  0  0  0
   42.3979   -3.3362   47.4334 H   0  0  0  0  0  0  0  0  0  0  0  0
   41.5545   -1.9802   46.9649 H   0  0  0  0  0  0  0  0  0  0  0  0
   44.0452    0.2949   47.9670 H   0  0  0  0  0  0  0  0  0  0  0  0
   42.6363    0.1352   47.1016 H   0  0  0  0  0  0  0  0  0  0  0  0
   44.1769    0.4251   45.4688 H   0  0  0  0  0  0  0  0  0  0  0  0
   45.2771   -0.5349   46.2578 H   0  0  0  0  0  0  0  0  0  0  0  0
   41.0347   -0.0035   50.1972 H   0  0  0  0  0  0  0  0  0  0  0  0
   40.7151   -0.5390   48.6857 H   0  0  0  0  0  0  0  0  0  0  0  0
   40.3557   -1.4740   49.9693 H   0  0  0  0  0  0  0  0  0  0  0  0
   43.7166   -0.9035   41.3634 H   0  0  0  0  0  0  0  0  0  0  0  0
  1  2  1  0  0  0  0
  1 53  1  0  0  0  0
  1 54  1  0  0  0  0
  1 55  1  0  0  0  0
  2  3  1  0  0  0  0
  2  4  1  0  0  0  0
  2  5  1  0  0  0  0
  3 56  1  0  0  0  0
  3 57  1  0  0  0  0
  3 58  1  0  0  0  0
  4 59  1  0  0  0  0
  4 60  1  0  0  0  0
  4 61  1  0  0  0  0
  5  6  1  0  0  0  0
  6  7  2  0  0  0  0
  6  8  1  0  0  0  0
  8  9  1  0  0  0  0
  8 13  1  0  0  0  0
  9 10  1  0  0  0  0
  9 62  1  0  0  0  0
  9 63  1  0  0  0  0
 10 11  1  0  0  0  0
 10 64  1  0  0  0  0
 10 65  1  0  0  0  0
 11 12  1  0  0  0  0
 11 14  1  0  0  0  0
 11 66  1  0  0  0  0
 12 13  1  0  0  0  0
 12 67  1  0  0  0  0
 12 68  1  0  0  0  0
 13 69  1  0  0  0  0
 13 70  1  0  0  0  0
 14 15  1  0  0  0  0
 14 19  1  0  0  0  0
 14 71  1  6  0  0  0
 15 16  1  0  0  0  0
 15 72  1  0  0  0  0
 15 73  1  0  0  0  0
 16 17  1  0  0  0  0
 16 74  1  0  0  0  0
 16 75  1  0  0  0  0
 17 18  1  0  0  0  0
 17 20  1  0  0  0  0
 17 76  1  6  0  0  0
 18 19  1  0  0  0  0
 18 77  1  0  0  0  0
 18 78  1  0  0  0  0
 19 79  1  0  0  0  0
 19 80  1  0  0  0  0
 20 21  1  0  0  0  0
 20 81  1  0  0  0  0
 20 82  1  0  0  0  0
 21 22  1  0  0  0  0
 21 51  1  0  0  0  0
 21 52  1  6  0  0  0
 22 23  1  0  0  0  0
 22 83  1  0  0  0  0
 22 84  1  0  0  0  0
 23 24  1  0  0  0  0
 23 27  1  0  0  0  0
 24 25  2  0  0  0  0
 24 46  1  0  0  0  0
 25 26  1  0  0  0  0
 25 43  1  0  0  0  0
 26 27  2  0  0  0  0
 26 28  1  0  0  0  0
 28 29  2  0  0  0  0
 28 33  1  0  0  0  0
 29 30  1  0  0  0  0
 29 85  1  0  0  0  0
 30 31  2  0  0  0  0
 30 86  1  0  0  0  0
 31 32  1  0  0  0  0
 31 42  1  0  0  0  0
 32 33  2  0  0  0  0
 32 34  1  0  0  0  0
 33 87  1  0  0  0  0
 34 35  3  0  0  0  0
 35 36  1  0  0  0  0
 36 37  2  0  0  0  0
 36 41  1  0  0  0  0
 37 38  1  0  0  0  0
 37 88  1  0  0  0  0
 38 39  2  0  0  0  0
 38 89  1  0  0  0  0
 39 40  1  0  0  0  0
 39 90  1  0  0  0  0
 40 41  2  0  0  0  0
 40 91  1  0  0  0  0
 43 44  1  0  0  0  0
 43 92  1  0  0  0  0
 43 93  1  0  0  0  0
 44 45  1  0  0  0  0
 44 47  1  0  0  0  0
 45 46  1  0  0  0  0
 45 94  1  0  0  0  0
 45 95  1  0  0  0  0
 46 96  1  0  0  0  0
 46 97  1  0  0  0  0
 47 48  2  0  0  0  0
 47 49  2  0  0  0  0
 47 50  1  0  0  0  0
 50 98  1  0  0  0  0
 50 99  1  0  0  0  0
 50100  1  0  0  0  0
 51101  1  0  0  0  0
M  CHG  1  17   1
M  END
