CatS_450:1_D
 OpenBabel12041818463D

 91 96  0  0  0  0  0  0  0  0999 V2000
   47.8900   -1.7907   40.2226 C   0  0  0  0  0  0  0  0  0  0  0  0
   49.0469   -1.7392   39.4942 C   0  0  0  0  0  0  0  0  0  0  0  0
   50.2727   -2.0771   40.0662 C   0  0  0  0  0  0  0  0  0  0  0  0
   50.2878   -2.4624   41.4050 C   0  0  0  0  0  0  0  0  0  0  0  0
   49.1393   -2.5154   42.1436 C   0  0  0  0  0  0  0  0  0  0  0  0
   47.9213   -2.1836   41.5583 C   0  0  0  0  0  0  0  0  0  0  0  0
   46.7102   -2.2616   42.3340 C   0  0  0  0  0  0  0  0  0  0  0  0
   45.6805   -2.3401   42.9841 C   0  0  0  0  0  0  0  0  0  0  0  0
   44.4605   -2.4427   43.7434 C   0  0  0  0  0  0  0  0  0  0  0  0
   43.7934   -3.6596   43.8377 C   0  0  0  0  0  0  0  0  0  0  0  0
   42.6294   -3.7664   44.5755 C   0  0  0  0  0  0  0  0  0  0  0  0
   42.1359   -2.6371   45.2112 C   0  0  0  0  0  0  0  0  0  0  0  0
   42.7889   -1.4286   45.1205 C   0  0  0  0  0  0  0  0  0  0  0  0
   43.9483   -1.3223   44.3920 C   0  0  0  0  0  0  0  0  0  0  0  0
   44.7724    0.2055   44.2802 Cl  0  0  0  0  0  0  0  0  0  0  0  0
   41.8959   -5.0162   44.7002 C   0  0  0  0  0  0  0  0  0  0  0  0
   40.8363   -5.5230   43.9103 C   0  0  0  0  0  0  0  0  0  0  0  0
   40.5495   -6.6953   44.4851 C   0  0  0  0  0  0  0  0  0  0  0  0
   41.3420   -6.9625   45.5551 N   0  0  0  0  0  0  0  0  0  0  0  0
   42.1595   -5.8905   45.6457 N   0  0  0  0  0  0  0  0  0  0  0  0
   41.3311   -8.0897   46.5011 C   0  0  0  0  0  0  0  0  0  0  0  0
   41.4766   -9.4845   45.8649 C   0  0  0  0  0  0  0  0  0  0  0  0
   40.2456  -10.3611   46.1748 C   0  0  0  0  0  0  0  0  0  0  0  0
   40.0152  -11.4287   45.1323 N   0  3  0  0  0  0  0  0  0  0  0  0
   38.5657  -11.5216   44.7165 C   0  0  0  0  0  0  0  0  0  0  0  0
   38.3630  -12.4288   43.4881 C   0  0  0  0  0  0  0  0  0  0  0  0
   38.8789  -14.1193   43.8789 S   0  0  0  0  0  0  0  0  0  0  0  0
   40.5810  -13.7864   44.3975 C   0  0  0  0  0  0  0  0  0  0  0  0
   40.5970  -12.7591   45.5460 C   0  0  0  0  0  0  0  0  0  0  0  0
   39.4351   -7.5938   43.9772 C   0  0  0  0  0  0  0  0  0  0  0  0
   39.1110   -7.3126   42.4953 C   0  0  0  0  0  0  0  0  0  0  0  0
   39.0878   -5.8806   42.1273 N   0  0  0  0  0  0  0  0  0  0  0  0
   40.1094   -4.9641   42.6934 C   0  0  0  0  0  0  0  0  0  0  0  0
   38.1636   -5.4536   41.2295 C   0  0  0  0  0  0  0  0  0  0  0  0
   37.2547   -6.1927   40.8367 O   0  0  0  0  0  0  0  0  0  0  0  0
   38.2578   -4.1965   40.7502 N   0  0  0  0  0  0  0  0  0  0  0  0
   51.5487   -2.0553   39.3088 C   0  0  0  0  0  0  0  0  0  0  0  0
   52.5260   -2.5450   39.8744 O   0  0  0  0  0  0  0  0  0  0  0  0
   51.6076   -1.5239   38.0662 N   0  0  0  0  0  0  0  0  0  0  0  0
   52.8609   -1.5938   37.2984 C   0  0  0  0  0  0  0  0  0  0  0  0
   52.7321   -2.3774   35.9739 C   0  0  0  0  0  0  0  0  0  0  0  0
   52.2451   -3.7955   36.1380 N   0  3  0  0  0  0  0  0  0  0  0  0
   52.8882   -4.7218   35.1368 C   0  0  0  0  0  0  0  0  0  0  0  0
   52.3864   -6.1620   35.3545 C   0  0  0  0  0  0  0  0  0  0  0  0
   50.9487   -6.2051   35.2874 O   0  0  0  0  0  0  0  0  0  0  0  0
   50.3286   -5.3922   36.3021 C   0  0  0  0  0  0  0  0  0  0  0  0
   50.7411   -3.9146   36.1484 C   0  0  0  0  0  0  0  0  0  0  0  0
   47.0199   -1.5456   39.7949 H   0  0  0  0  0  0  0  0  0  0  0  0
   49.0129   -1.4546   38.5360 H   0  0  0  0  0  0  0  0  0  0  0  0
   51.1575   -2.7053   41.8346 H   0  0  0  0  0  0  0  0  0  0  0  0
   49.1741   -2.7924   43.1038 H   0  0  0  0  0  0  0  0  0  0  0  0
   44.1587   -4.4635   43.3682 H   0  0  0  0  0  0  0  0  0  0  0  0
   41.2921   -2.7016   45.7441 H   0  0  0  0  0  0  0  0  0  0  0  0
   42.4180   -0.6254   45.5866 H   0  0  0  0  0  0  0  0  0  0  0  0
   40.4665   -8.0651   47.0030 H   0  0  0  0  0  0  0  0  0  0  0  0
   42.1342   -7.9685   47.0845 H   0  0  0  0  0  0  0  0  0  0  0  0
   42.2967   -9.9273   46.2271 H   0  0  0  0  0  0  0  0  0  0  0  0
   41.5499   -9.3774   44.8734 H   0  0  0  0  0  0  0  0  0  0  0  0
   39.4367   -9.7750   46.2207 H   0  0  0  0  0  0  0  0  0  0  0  0
   40.4142  -10.8221   47.0460 H   0  0  0  0  0  0  0  0  0  0  0  0
   40.4865  -11.1704   44.3968 H   0  0  0  0  0  0  0  0  0  0  0  0
   38.2330  -10.6039   44.4992 H   0  0  0  0  0  0  0  0  0  0  0  0
   38.0558  -11.9233   45.4773 H   0  0  0  0  0  0  0  0  0  0  0  0
   38.9071  -12.0815   42.7243 H   0  0  0  0  0  0  0  0  0  0  0  0
   37.3951  -12.4311   43.2368 H   0  0  0  0  0  0  0  0  0  0  0  0
   41.0996  -13.4265   43.6219 H   0  0  0  0  0  0  0  0  0  0  0  0
   40.9966  -14.6378   44.7174 H   0  0  0  0  0  0  0  0  0  0  0  0
   40.0648  -13.1205   46.3116 H   0  0  0  0  0  0  0  0  0  0  0  0
   41.5506  -12.6082   45.8067 H   0  0  0  0  0  0  0  0  0  0  0  0
   38.6144   -7.4380   44.5269 H   0  0  0  0  0  0  0  0  0  0  0  0
   39.7386   -8.5435   44.0553 H   0  0  0  0  0  0  0  0  0  0  0  0
   38.2132   -7.7033   42.2922 H   0  0  0  0  0  0  0  0  0  0  0  0
   39.8485   -7.7272   41.9623 H   0  0  0  0  0  0  0  0  0  0  0  0
   40.7861   -4.7668   41.9842 H   0  0  0  0  0  0  0  0  0  0  0  0
   39.6241   -4.1443   42.9976 H   0  0  0  0  0  0  0  0  0  0  0  0
   38.9116   -3.6650   40.9948 H   0  0  0  0  0  0  0  0  0  0  0  0
   37.6589   -3.9077   40.1738 H   0  0  0  0  0  0  0  0  0  0  0  0
   50.9018   -1.1425   37.7078 H   0  0  0  0  0  0  0  0  0  0  0  0
   53.5557   -2.0373   37.8646 H   0  0  0  0  0  0  0  0  0  0  0  0
   53.1105   -0.6555   37.0591 H   0  0  0  0  0  0  0  0  0  0  0  0
   53.6295   -2.4007   35.5334 H   0  0  0  0  0  0  0  0  0  0  0  0
   52.0452   -1.9014   35.4248 H   0  0  0  0  0  0  0  0  0  0  0  0
   52.5342   -4.0771   36.9560 H   0  0  0  0  0  0  0  0  0  0  0  0
   53.8816   -4.6940   35.2477 H   0  0  0  0  0  0  0  0  0  0  0  0
   52.6450   -4.4265   34.2128 H   0  0  0  0  0  0  0  0  0  0  0  0
   52.6873   -6.4858   36.2515 H   0  0  0  0  0  0  0  0  0  0  0  0
   52.7622   -6.7494   34.6378 H   0  0  0  0  0  0  0  0  0  0  0  0
   50.6084   -5.7211   37.2040 H   0  0  0  0  0  0  0  0  0  0  0  0
   49.3357   -5.4583   36.2028 H   0  0  0  0  0  0  0  0  0  0  0  0
   50.3732   -3.5531   35.2917 H   0  0  0  0  0  0  0  0  0  0  0  0
   50.3765   -3.3920   36.9191 H   0  0  0  0  0  0  0  0  0  0  0  0
  1  2  2  0  0  0  0
  1  6  1  0  0  0  0
  1 48  1  0  0  0  0
  2  3  1  0  0  0  0
  2 49  1  0  0  0  0
  3  4  2  0  0  0  0
  3 37  1  0  0  0  0
  4  5  1  0  0  0  0
  4 50  1  0  0  0  0
  5  6  2  0  0  0  0
  5 51  1  0  0  0  0
  6  7  1  0  0  0  0
  7  8  3  0  0  0  0
  8  9  1  0  0  0  0
  9 10  2  0  0  0  0
  9 14  1  0  0  0  0
 10 11  1  0  0  0  0
 10 52  1  0  0  0  0
 11 12  2  0  0  0  0
 11 16  1  0  0  0  0
 12 13  1  0  0  0  0
 12 53  1  0  0  0  0
 13 14  2  0  0  0  0
 13 54  1  0  0  0  0
 14 15  1  0  0  0  0
 16 17  1  0  0  0  0
 16 20  2  0  0  0  0
 17 18  2  0  0  0  0
 17 33  1  0  0  0  0
 18 19  1  0  0  0  0
 18 30  1  0  0  0  0
 19 20  1  0  0  0  0
 19 21  1  0  0  0  0
 21 22  1  0  0  0  0
 21 55  1  0  0  0  0
 21 56  1  0  0  0  0
 22 23  1  0  0  0  0
 22 57  1  0  0  0  0
 22 58  1  0  0  0  0
 23 24  1  0  0  0  0
 23 59  1  0  0  0  0
 23 60  1  0  0  0  0
 24 25  1  0  0  0  0
 24 29  1  0  0  0  0
 24 61  1  0  0  0  0
 25 26  1  0  0  0  0
 25 62  1  0  0  0  0
 25 63  1  0  0  0  0
 26 27  1  0  0  0  0
 26 64  1  0  0  0  0
 26 65  1  0  0  0  0
 27 28  1  0  0  0  0
 28 29  1  0  0  0  0
 28 66  1  0  0  0  0
 28 67  1  0  0  0  0
 29 68  1  0  0  0  0
 29 69  1  0  0  0  0
 30 31  1  0  0  0  0
 30 70  1  0  0  0  0
 30 71  1  0  0  0  0
 31 32  1  0  0  0  0
 31 72  1  0  0  0  0
 31 73  1  0  0  0  0
 32 33  1  0  0  0  0
 32 34  1  0  0  0  0
 33 74  1  0  0  0  0
 33 75  1  0  0  0  0
 34 35  2  0  0  0  0
 34 36  1  0  0  0  0
 36 76  1  0  0  0  0
 36 77  1  0  0  0  0
 37 38  2  0  0  0  0
 37 39  1  0  0  0  0
 39 40  1  0  0  0  0
 39 78  1  0  0  0  0
 40 41  1  0  0  0  0
 40 79  1  0  0  0  0
 40 80  1  0  0  0  0
 41 42  1  0  0  0  0
 41 81  1  0  0  0  0
 41 82  1  0  0  0  0
 42 43  1  0  0  0  0
 42 47  1  0  0  0  0
 42 83  1  0  0  0  0
 43 44  1  0  0  0  0
 43 84  1  0  0  0  0
 43 85  1  0  0  0  0
 44 45  1  0  0  0  0
 44 86  1  0  0  0  0
 44 87  1  0  0  0  0
 45 46  1  0  0  0  0
 46 47  1  0  0  0  0
 46 88  1  0  0  0  0
 46 89  1  0  0  0  0
 47 90  1  0  0  0  0
 47 91  1  0  0  0  0
M  CHG  2  24   1  42   1
M  END
