CatS_44:1_D
 OpenBabel12041818463D

 98102  0  0  0  0  0  0  0  0999 V2000
   43.5766   -9.7137   35.1046 C   0  0  0  0  0  0  0  0  0  0  0  0
   43.9990   -8.2704   35.4158 C   0  0  0  0  0  0  0  0  0  0  0  0
   43.4937   -7.8906   36.8185 C   0  0  0  0  0  0  0  0  0  0  0  0
   41.9896   -7.8522   36.8834 N   0  3  0  0  0  0  0  0  0  0  0  0
   41.3663   -8.5205   38.0846 C   0  0  0  0  0  0  0  0  0  0  0  0
   40.0861   -7.7944   38.5403 C   0  0  0  0  0  0  0  0  0  0  0  0
   39.7116   -8.2829   40.2459 S   0  0  0  0  0  0  0  0  0  0  0  0
   39.2767   -6.8364   41.2249 C   0  0  0  0  0  0  0  0  0  0  0  0
   40.1961   -6.4250   42.1634 C   0  0  0  0  0  0  0  0  0  0  0  0
   39.9592   -5.3142   42.9526 C   0  0  0  0  0  0  0  0  0  0  0  0
   38.7697   -4.6303   42.7808 C   0  0  0  0  0  0  0  0  0  0  0  0
   37.8567   -5.0404   41.8382 C   0  0  0  0  0  0  0  0  0  0  0  0
   38.0868   -6.1428   41.0390 C   0  0  0  0  0  0  0  0  0  0  0  0
   36.9916   -6.4822   40.0253 C   0  0  0  0  0  0  0  0  0  0  0  0
   36.7056   -7.8426   40.0451 F   0  0  0  0  0  0  0  0  0  0  0  0
   35.7914   -5.8213   40.2725 F   0  0  0  0  0  0  0  0  0  0  0  0
   37.3527   -6.1453   38.7244 F   0  0  0  0  0  0  0  0  0  0  0  0
   40.9330   -4.8912   43.9448 C   0  0  0  0  0  0  0  0  0  0  0  0
   41.4859   -5.6114   45.0302 C   0  0  0  0  0  0  0  0  0  0  0  0
   42.3130   -4.7313   45.6015 C   0  0  0  0  0  0  0  0  0  0  0  0
   42.3289   -3.5281   44.9652 N   0  0  0  0  0  0  0  0  0  0  0  0
   41.4577   -3.6849   43.9423 N   0  0  0  0  0  0  0  0  0  0  0  0
   43.1361   -2.3118   45.1699 C   0  0  0  0  0  0  0  0  0  0  0  0
   42.5695   -1.1247   45.9783 C   0  0  0  0  0  0  0  0  0  0  0  0
   43.4369   -0.7564   47.2009 C   0  0  0  0  0  0  0  0  0  0  0  0
   42.8256   -1.1228   48.5308 N   0  3  1  0  0  0  0  0  0  0  0  0
   41.3181   -1.0400   48.5272 C   0  0  0  0  0  0  0  0  0  0  0  0
   40.7452   -1.3487   49.9271 C   0  0  0  0  0  0  0  0  0  0  0  0
   41.2248   -2.7344   50.4098 C   0  0  1  0  0  0  0  0  0  0  0  0
   42.7671   -2.7494   50.4381 C   0  0  0  0  0  0  0  0  0  0  0  0
   43.3194   -2.4570   49.0302 C   0  0  0  0  0  0  0  0  0  0  0  0
   40.7196   -2.9968   51.8179 C   0  0  0  0  0  0  0  0  0  0  0  0
   40.3945   -2.0603   52.5362 O   0  0  0  0  0  0  0  0  0  0  0  0
   40.7065   -4.2897   52.2128 N   0  0  0  0  0  0  0  0  0  0  0  0
   40.5644   -4.5733   53.6549 C   0  0  0  0  0  0  0  0  0  0  0  0
   39.8521   -5.8887   54.0214 C   0  0  0  0  0  0  0  0  0  0  0  0
   40.4533   -7.0406   53.2002 C   0  0  0  0  0  0  0  0  0  0  0  0
   40.2137   -6.7473   51.7098 C   0  0  0  0  0  0  0  0  0  0  0  0
   40.9088   -5.4341   51.2922 C   0  0  0  0  0  0  0  0  0  0  0  0
   43.1409   -5.0972   46.8222 C   0  0  0  0  0  0  0  0  0  0  0  0
   42.8076   -6.5017   47.3779 C   0  0  0  0  0  0  0  0  0  0  0  0
   42.4904   -7.4954   46.3313 N   0  0  0  0  0  0  0  0  0  0  0  0
   41.3096   -7.0289   45.5676 C   0  0  0  0  0  0  0  0  0  0  0  0
   42.5273   -9.0568   46.7989 S   0  0  0  0  0  0  0  0  0  0  0  0
   43.7645   -9.2532   47.4836 O   0  0  0  0  0  0  0  0  0  0  0  0
   42.2714   -9.8568   45.6451 O   0  0  0  0  0  0  0  0  0  0  0  0
   41.1768   -9.3239   47.9811 C   0  0  0  0  0  0  0  0  0  0  0  0
   42.7577   -9.6969   34.5309 H   0  0  0  0  0  0  0  0  0  0  0  0
   44.3153  -10.1857   34.6234 H   0  0  0  0  0  0  0  0  0  0  0  0
   43.3817  -10.1988   35.9572 H   0  0  0  0  0  0  0  0  0  0  0  0
   43.6062   -7.6508   34.7362 H   0  0  0  0  0  0  0  0  0  0  0  0
   44.9958   -8.1969   35.3863 H   0  0  0  0  0  0  0  0  0  0  0  0
   43.8532   -6.9892   37.0599 H   0  0  0  0  0  0  0  0  0  0  0  0
   43.8122   -8.5874   37.4612 H   0  0  0  0  0  0  0  0  0  0  0  0
   41.7275   -6.9793   36.8653 H   0  0  0  0  0  0  0  0  0  0  0  0
   41.6434   -8.1921   36.1130 H   0  0  0  0  0  0  0  0  0  0  0  0
   42.0264   -8.5212   38.8358 H   0  0  0  0  0  0  0  0  0  0  0  0
   41.1186   -9.4547   37.8277 H   0  0  0  0  0  0  0  0  0  0  0  0
   39.3251   -8.0444   37.9417 H   0  0  0  0  0  0  0  0  0  0  0  0
   40.2227   -6.8048   38.4941 H   0  0  0  0  0  0  0  0  0  0  0  0
   41.0478   -6.9368   42.2761 H   0  0  0  0  0  0  0  0  0  0  0  0
   38.5719   -3.8302   43.3471 H   0  0  0  0  0  0  0  0  0  0  0  0
   37.0050   -4.5278   41.7286 H   0  0  0  0  0  0  0  0  0  0  0  0
   43.3635   -1.9607   44.2616 H   0  0  0  0  0  0  0  0  0  0  0  0
   43.8888   -2.6347   45.7436 H   0  0  0  0  0  0  0  0  0  0  0  0
   41.6520   -1.3633   46.2961 H   0  0  0  0  0  0  0  0  0  0  0  0
   42.5581   -0.3296   45.3719 H   0  0  0  0  0  0  0  0  0  0  0  0
   43.5952    0.2309   47.1879 H   0  0  0  0  0  0  0  0  0  0  0  0
   44.2820   -1.2850   47.1211 H   0  0  0  0  0  0  0  0  0  0  0  0
   43.1059   -0.4983   49.1318 H   0  0  0  0  0  0  0  0  0  0  0  0
   40.9543   -1.6993   47.8692 H   0  0  0  0  0  0  0  0  0  0  0  0
   41.0502   -0.1110   48.2718 H   0  0  0  0  0  0  0  0  0  0  0  0
   39.7461   -1.3388   49.8856 H   0  0  0  0  0  0  0  0  0  0  0  0
   41.0662   -0.6532   50.5699 H   0  0  0  0  0  0  0  0  0  0  0  0
   40.8750   -3.4360   49.7890 H   0  0  0  0  0  0  0  0  0  0  0  0
   43.0861   -3.6470   50.7425 H   0  0  0  0  0  0  0  0  0  0  0  0
   43.0919   -2.0462   51.0707 H   0  0  0  0  0  0  0  0  0  0  0  0
   44.3189   -2.4478   49.0620 H   0  0  0  0  0  0  0  0  0  0  0  0
   43.0016   -3.1713   48.4065 H   0  0  0  0  0  0  0  0  0  0  0  0
   40.0508   -3.8204   54.0663 H   0  0  0  0  0  0  0  0  0  0  0  0
   41.4973   -4.6698   54.0019 H   0  0  0  0  0  0  0  0  0  0  0  0
   38.8755   -5.8077   53.8223 H   0  0  0  0  0  0  0  0  0  0  0  0
   39.9754   -6.0749   54.9962 H   0  0  0  0  0  0  0  0  0  0  0  0
   40.0144   -7.9029   53.4527 H   0  0  0  0  0  0  0  0  0  0  0  0
   41.4337   -7.1179   53.3817 H   0  0  0  0  0  0  0  0  0  0  0  0
   39.2308   -6.6685   51.5434 H   0  0  0  0  0  0  0  0  0  0  0  0
   40.5959   -7.4972   51.1698 H   0  0  0  0  0  0  0  0  0  0  0  0
   41.8911   -5.6092   51.2260 H   0  0  0  0  0  0  0  0  0  0  0  0
   40.4924   -5.1667   50.4233 H   0  0  0  0  0  0  0  0  0  0  0  0
   42.9722   -4.4199   47.5384 H   0  0  0  0  0  0  0  0  0  0  0  0
   44.1006   -5.1074   46.5412 H   0  0  0  0  0  0  0  0  0  0  0  0
   42.0207   -6.4219   47.9897 H   0  0  0  0  0  0  0  0  0  0  0  0
   43.6250   -6.8295   47.8516 H   0  0  0  0  0  0  0  0  0  0  0  0
   41.1566   -7.6487   44.7980 H   0  0  0  0  0  0  0  0  0  0  0  0
   40.5281   -7.0227   46.1916 H   0  0  0  0  0  0  0  0  0  0  0  0
   40.5260   -9.9750   47.5904 H   0  0  0  0  0  0  0  0  0  0  0  0
   41.5442   -9.6876   48.8372 H   0  0  0  0  0  0  0  0  0  0  0  0
   40.7159   -8.4562   48.1674 H   0  0  0  0  0  0  0  0  0  0  0  0
  1  2  1  0  0  0  0
  1 48  1  0  0  0  0
  1 49  1  0  0  0  0
  1 50  1  0  0  0  0
  2  3  1  0  0  0  0
  2 51  1  0  0  0  0
  2 52  1  0  0  0  0
  3  4  1  0  0  0  0
  3 53  1  0  0  0  0
  3 54  1  0  0  0  0
  4  5  1  0  0  0  0
  4 55  1  0  0  0  0
  4 56  1  0  0  0  0
  5  6  1  0  0  0  0
  5 57  1  0  0  0  0
  5 58  1  0  0  0  0
  6  7  1  0  0  0  0
  6 59  1  0  0  0  0
  6 60  1  0  0  0  0
  7  8  1  0  0  0  0
  8  9  2  0  0  0  0
  8 13  1  0  0  0  0
  9 10  1  0  0  0  0
  9 61  1  0  0  0  0
 10 11  2  0  0  0  0
 10 18  1  0  0  0  0
 11 12  1  0  0  0  0
 11 62  1  0  0  0  0
 12 13  2  0  0  0  0
 12 63  1  0  0  0  0
 13 14  1  0  0  0  0
 14 15  1  0  0  0  0
 14 16  1  0  0  0  0
 14 17  1  0  0  0  0
 18 19  1  0  0  0  0
 18 22  2  0  0  0  0
 19 20  2  0  0  0  0
 19 43  1  0  0  0  0
 20 21  1  0  0  0  0
 20 40  1  0  0  0  0
 21 22  1  0  0  0  0
 21 23  1  0  0  0  0
 23 24  1  0  0  0  0
 23 64  1  0  0  0  0
 23 65  1  0  0  0  0
 24 25  1  0  0  0  0
 24 66  1  0  0  0  0
 24 67  1  0  0  0  0
 25 26  1  0  0  0  0
 25 68  1  0  0  0  0
 25 69  1  0  0  0  0
 26 27  1  0  0  0  0
 26 31  1  0  0  0  0
 26 70  1  1  0  0  0
 27 28  1  0  0  0  0
 27 71  1  0  0  0  0
 27 72  1  0  0  0  0
 28 29  1  0  0  0  0
 28 73  1  0  0  0  0
 28 74  1  0  0  0  0
 29 30  1  0  0  0  0
 29 32  1  0  0  0  0
 29 75  1  6  0  0  0
 30 31  1  0  0  0  0
 30 76  1  0  0  0  0
 30 77  1  0  0  0  0
 31 78  1  0  0  0  0
 31 79  1  0  0  0  0
 32 33  2  0  0  0  0
 32 34  1  0  0  0  0
 34 35  1  0  0  0  0
 34 39  1  0  0  0  0
 35 36  1  0  0  0  0
 35 80  1  0  0  0  0
 35 81  1  0  0  0  0
 36 37  1  0  0  0  0
 36 82  1  0  0  0  0
 36 83  1  0  0  0  0
 37 38  1  0  0  0  0
 37 84  1  0  0  0  0
 37 85  1  0  0  0  0
 38 39  1  0  0  0  0
 38 86  1  0  0  0  0
 38 87  1  0  0  0  0
 39 88  1  0  0  0  0
 39 89  1  0  0  0  0
 40 41  1  0  0  0  0
 40 90  1  0  0  0  0
 40 91  1  0  0  0  0
 41 42  1  0  0  0  0
 41 92  1  0  0  0  0
 41 93  1  0  0  0  0
 42 43  1  0  0  0  0
 42 44  1  0  0  0  0
 43 94  1  0  0  0  0
 43 95  1  0  0  0  0
 44 45  2  0  0  0  0
 44 46  2  0  0  0  0
 44 47  1  0  0  0  0
 47 96  1  0  0  0  0
 47 97  1  0  0  0  0
 47 98  1  0  0  0  0
M  CHG  2   4   1  26   1
M  END
