CatS_411:1_D
 OpenBabel12041818463D

 89 94  0  0  1  0  0  0  0  0999 V2000
   49.5374   -2.2552   43.0543 C   0  0  0  0  0  0  0  0  0  0  0  0
   50.7653   -2.3083   42.4491 C   0  0  0  0  0  0  0  0  0  0  0  0
   50.8719   -2.4059   41.0770 C   0  0  0  0  0  0  0  0  0  0  0  0
   49.7321   -2.4599   40.2716 C   0  0  0  0  0  0  0  0  0  0  0  0
   48.4976   -2.4048   40.8953 C   0  0  0  0  0  0  0  0  0  0  0  0
   48.3877   -2.3018   42.2744 C   0  0  0  0  0  0  0  0  0  0  0  0
   47.0853   -2.2392   42.8849 C   0  0  0  0  0  0  0  0  0  0  0  0
   45.9740   -2.1856   43.3849 C   0  0  0  0  0  0  0  0  0  0  0  0
   44.6500   -2.1248   43.9478 C   0  0  0  0  0  0  0  0  0  0  0  0
   43.8405   -3.2528   43.8908 C   0  0  0  0  0  0  0  0  0  0  0  0
   42.5644   -3.2331   44.4190 C   0  0  0  0  0  0  0  0  0  0  0  0
   42.1058   -2.0623   45.0038 C   0  0  0  0  0  0  0  0  0  0  0  0
   42.9019   -0.9396   45.0644 C   0  0  0  0  0  0  0  0  0  0  0  0
   44.1723   -0.9601   44.5416 C   0  0  0  0  0  0  0  0  0  0  0  0
   45.1737    0.4601   44.6176 Cl  0  0  0  0  0  0  0  0  0  0  0  0
   41.6948   -4.3979   44.3655 C   0  0  0  0  0  0  0  0  0  0  0  0
   41.6782   -5.5492   45.1883 C   0  0  0  0  0  0  0  0  0  0  0  0
   40.6842   -6.2850   44.6794 C   0  0  0  0  0  0  0  0  0  0  0  0
   40.0851   -5.6930   43.6132 N   0  0  0  0  0  0  0  0  0  0  0  0
   40.7456   -4.5238   43.4642 N   0  0  0  0  0  0  0  0  0  0  0  0
   39.0401   -6.1665   42.6936 C   0  0  0  0  0  0  0  0  0  0  0  0
   39.4425   -6.4485   41.2289 C   0  0  0  0  0  0  0  0  0  0  0  0
   38.5152   -5.7392   40.2116 C   0  0  0  0  0  0  0  0  0  0  0  0
   37.0495   -6.0170   40.4478 N   0  3  0  0  0  0  0  0  0  0  0  0
   36.1546   -5.0855   39.6625 C   0  0  0  0  0  0  0  0  0  0  0  0
   36.3088   -5.2731   38.1418 C   0  0  0  0  0  0  0  0  0  0  0  0
   35.7883   -6.9439   37.6797 S   0  0  0  0  0  0  0  0  0  0  0  0
   36.8894   -7.8984   38.7543 C   0  0  0  0  0  0  0  0  0  0  0  0
   36.7109   -7.4716   40.2243 C   0  0  0  0  0  0  0  0  0  0  0  0
   40.2939   -7.6317   45.2651 C   0  0  0  0  0  0  0  0  0  0  0  0
   41.4559   -8.2766   46.0518 C   0  0  0  0  0  0  0  0  0  0  0  0
   42.1148   -7.2870   46.9293 N   0  0  0  0  0  0  0  0  0  0  0  0
   42.5289   -5.9796   46.3772 C   0  0  0  0  0  0  0  0  0  0  0  0
   42.3621   -7.5576   48.2247 C   0  0  0  0  0  0  0  0  0  0  0  0
   42.8413   -6.7639   49.0236 O   0  0  0  0  0  0  0  0  0  0  0  0
   42.0567   -8.8855   48.8075 C   0  0  0  0  0  0  0  0  0  0  0  0
   40.9784   -9.0616   49.3560 O   0  0  0  0  0  0  0  0  0  0  0  0
   43.0231   -9.8073   48.7091 N   0  0  0  0  0  0  0  0  0  0  0  0
   49.7611   -2.5544   38.7851 C   0  0  0  0  0  0  0  0  0  0  0  0
   48.7509   -2.1805   38.1915 O   0  0  0  0  0  0  0  0  0  0  0  0
   50.8505   -3.0375   38.1512 N   0  0  0  0  0  0  0  0  0  0  0  0
   50.9306   -3.0214   36.6827 C   0  0  0  0  0  0  0  0  0  0  0  0
   52.2787   -2.4513   36.2094 C   0  0  2  0  0  0  0  0  0  0  0  0
   52.6234   -1.1344   36.9216 C   0  0  0  0  0  0  0  0  0  0  0  0
   53.5720   -0.3914   35.9581 C   0  0  0  0  0  0  0  0  0  0  0  0
   53.3608   -1.0113   34.5602 C   0  0  0  0  0  0  0  0  0  0  0  0
   52.2665   -2.0167   34.7756 N   0  3  0  0  0  0  0  0  0  0  0  0
   52.4735   -2.4382   40.3960 Cl  0  0  0  0  0  0  0  0  0  0  0  0
   52.9158   -3.2010   36.3885 H   0  0  0  0  0  0  0  0  0  0  0  0
   49.4688   -2.1835   44.0494 H   0  0  0  0  0  0  0  0  0  0  0  0
   51.5937   -2.2759   43.0082 H   0  0  0  0  0  0  0  0  0  0  0  0
   47.6669   -2.4401   40.3397 H   0  0  0  0  0  0  0  0  0  0  0  0
   44.1856   -4.0880   43.4626 H   0  0  0  0  0  0  0  0  0  0  0  0
   41.1829   -2.0325   45.3875 H   0  0  0  0  0  0  0  0  0  0  0  0
   42.5533   -0.1052   45.4913 H   0  0  0  0  0  0  0  0  0  0  0  0
   38.3181   -5.4747   42.6791 H   0  0  0  0  0  0  0  0  0  0  0  0
   38.7724   -7.0594   43.0558 H   0  0  0  0  0  0  0  0  0  0  0  0
   39.4037   -7.4348   41.0684 H   0  0  0  0  0  0  0  0  0  0  0  0
   40.3672   -6.0925   41.0944 H   0  0  0  0  0  0  0  0  0  0  0  0
   38.7555   -6.0482   39.2914 H   0  0  0  0  0  0  0  0  0  0  0  0
   38.6512   -4.7547   40.3223 H   0  0  0  0  0  0  0  0  0  0  0  0
   36.8968   -5.8599   41.3321 H   0  0  0  0  0  0  0  0  0  0  0  0
   36.3849   -4.1413   39.8978 H   0  0  0  0  0  0  0  0  0  0  0  0
   35.2070   -5.2973   39.9016 H   0  0  0  0  0  0  0  0  0  0  0  0
   37.2652   -5.1364   37.8835 H   0  0  0  0  0  0  0  0  0  0  0  0
   35.7373   -4.6049   37.6654 H   0  0  0  0  0  0  0  0  0  0  0  0
   37.8377   -7.7441   38.4769 H   0  0  0  0  0  0  0  0  0  0  0  0
   36.6624   -8.8687   38.6704 H   0  0  0  0  0  0  0  0  0  0  0  0
   35.7601   -7.6262   40.4928 H   0  0  0  0  0  0  0  0  0  0  0  0
   37.3393   -8.0188   40.7773 H   0  0  0  0  0  0  0  0  0  0  0  0
   40.0249   -8.2435   44.5213 H   0  0  0  0  0  0  0  0  0  0  0  0
   39.5355   -7.4850   45.9001 H   0  0  0  0  0  0  0  0  0  0  0  0
   42.1262   -8.6426   45.4062 H   0  0  0  0  0  0  0  0  0  0  0  0
   41.0859   -9.0100   46.6220 H   0  0  0  0  0  0  0  0  0  0  0  0
   42.4526   -5.2874   47.0948 H   0  0  0  0  0  0  0  0  0  0  0  0
   43.4717   -6.0727   46.0568 H   0  0  0  0  0  0  0  0  0  0  0  0
   43.7789   -9.6110   48.3032 H   0  0  0  0  0  0  0  0  0  0  0  0
   42.9026  -10.6092   49.0510 H   0  0  0  0  0  0  0  0  0  0  0  0
   51.5200   -3.3696   38.6151 H   0  0  0  0  0  0  0  0  0  0  0  0
   50.1888   -2.4576   36.3197 H   0  0  0  0  0  0  0  0  0  0  0  0
   50.8492   -3.9607   36.3496 H   0  0  0  0  0  0  0  0  0  0  0  0
   53.0760   -1.3139   37.7950 H   0  0  0  0  0  0  0  0  0  0  0  0
   51.8064   -0.5965   37.1295 H   0  0  0  0  0  0  0  0  0  0  0  0
   54.5216   -0.5075   36.2494 H   0  0  0  0  0  0  0  0  0  0  0  0
   53.3779    0.5895   35.9481 H   0  0  0  0  0  0  0  0  0  0  0  0
   54.1964   -1.4543   34.2353 H   0  0  0  0  0  0  0  0  0  0  0  0
   53.1274   -0.3299   33.8666 H   0  0  0  0  0  0  0  0  0  0  0  0
   51.4516   -1.7035   34.5163 H   0  0  0  0  0  0  0  0  0  0  0  0
   52.4122   -2.7385   34.2394 H   0  0  0  0  0  0  0  0  0  0  0  0
  1  2  2  0  0  0  0
  1  6  1  0  0  0  0
  1 50  1  0  0  0  0
  2  3  1  0  0  0  0
  2 51  1  0  0  0  0
  3  4  2  0  0  0  0
  3 48  1  0  0  0  0
  4  5  1  0  0  0  0
  4 39  1  0  0  0  0
  5  6  2  0  0  0  0
  5 52  1  0  0  0  0
  6  7  1  0  0  0  0
  7  8  3  0  0  0  0
  8  9  1  0  0  0  0
  9 10  2  0  0  0  0
  9 14  1  0  0  0  0
 10 11  1  0  0  0  0
 10 53  1  0  0  0  0
 11 12  2  0  0  0  0
 11 16  1  0  0  0  0
 12 13  1  0  0  0  0
 12 54  1  0  0  0  0
 13 14  2  0  0  0  0
 13 55  1  0  0  0  0
 14 15  1  0  0  0  0
 16 17  1  0  0  0  0
 16 20  2  0  0  0  0
 17 18  2  0  0  0  0
 17 33  1  0  0  0  0
 18 19  1  0  0  0  0
 18 30  1  0  0  0  0
 19 20  1  0  0  0  0
 19 21  1  0  0  0  0
 21 22  1  0  0  0  0
 21 56  1  0  0  0  0
 21 57  1  0  0  0  0
 22 23  1  0  0  0  0
 22 58  1  0  0  0  0
 22 59  1  0  0  0  0
 23 24  1  0  0  0  0
 23 60  1  0  0  0  0
 23 61  1  0  0  0  0
 24 25  1  0  0  0  0
 24 29  1  0  0  0  0
 24 62  1  0  0  0  0
 25 26  1  0  0  0  0
 25 63  1  0  0  0  0
 25 64  1  0  0  0  0
 26 27  1  0  0  0  0
 26 65  1  0  0  0  0
 26 66  1  0  0  0  0
 27 28  1  0  0  0  0
 28 29  1  0  0  0  0
 28 67  1  0  0  0  0
 28 68  1  0  0  0  0
 29 69  1  0  0  0  0
 29 70  1  0  0  0  0
 30 31  1  0  0  0  0
 30 71  1  0  0  0  0
 30 72  1  0  0  0  0
 31 32  1  0  0  0  0
 31 73  1  0  0  0  0
 31 74  1  0  0  0  0
 32 33  1  0  0  0  0
 32 34  1  0  0  0  0
 33 75  1  0  0  0  0
 33 76  1  0  0  0  0
 34 35  2  0  0  0  0
 34 36  1  0  0  0  0
 36 37  2  0  0  0  0
 36 38  1  0  0  0  0
 38 77  1  0  0  0  0
 38 78  1  0  0  0  0
 39 40  2  0  0  0  0
 39 41  1  0  0  0  0
 41 42  1  0  0  0  0
 41 79  1  0  0  0  0
 42 43  1  0  0  0  0
 42 80  1  0  0  0  0
 42 81  1  0  0  0  0
 43 44  1  0  0  0  0
 43 47  1  0  0  0  0
 43 49  1  1  0  0  0
 44 45  1  0  0  0  0
 44 82  1  0  0  0  0
 44 83  1  0  0  0  0
 45 46  1  0  0  0  0
 45 84  1  0  0  0  0
 45 85  1  0  0  0  0
 46 47  1  0  0  0  0
 46 86  1  0  0  0  0
 46 87  1  0  0  0  0
 47 88  1  0  0  0  0
 47 89  1  0  0  0  0
M  CHG  2  24   1  47   1
M  END
