CatS_185:1_D
 OpenBabel12041818463D

 93 97  0  0  1  0  0  0  0  0999 V2000
   42.6696   -7.7238   48.7126 C   0  0  0  0  0  0  0  0  0  0  0  0
   42.6289   -6.2143   48.4265 C   0  0  1  0  0  0  0  0  0  0  0  0
   41.9960   -5.4597   49.6193 C   0  0  0  0  0  0  0  0  0  0  0  0
   42.4457   -3.9786   49.6834 C   0  0  0  0  0  0  0  0  0  0  0  0
   42.8332   -3.4630   48.3195 N   0  3  2  0  0  0  0  0  0  0  0  0
   44.0051   -4.2090   47.7230 C   0  0  0  0  0  0  0  0  0  0  0  0
   44.0512   -5.6937   48.1534 C   0  0  0  0  0  0  0  0  0  0  0  0
   43.0382   -1.9697   48.2492 C   0  0  0  0  0  0  0  0  0  0  0  0
   41.8184   -1.1420   47.7890 C   0  0  0  0  0  0  0  0  0  0  0  0
   41.8913   -0.5758   46.0658 S   0  0  0  0  0  0  0  0  0  0  0  0
   42.6739   -1.9348   45.1859 C   0  0  0  0  0  0  0  0  0  0  0  0
   41.9513   -3.0978   45.0827 C   0  0  0  0  0  0  0  0  0  0  0  0
   42.4683   -4.2064   44.4399 C   0  0  0  0  0  0  0  0  0  0  0  0
   43.7332   -4.1095   43.8885 C   0  0  0  0  0  0  0  0  0  0  0  0
   44.4523   -2.9388   43.9858 C   0  0  0  0  0  0  0  0  0  0  0  0
   43.9445   -1.8314   44.6381 C   0  0  0  0  0  0  0  0  0  0  0  0
   44.8127   -0.5760   44.7111 C   0  0  0  0  0  0  0  0  0  0  0  0
   45.3582   -0.3436   45.9697 F   0  0  0  0  0  0  0  0  0  0  0  0
   45.8767   -0.6570   43.8190 F   0  0  0  0  0  0  0  0  0  0  0  0
   44.0766    0.5563   44.3768 F   0  0  0  0  0  0  0  0  0  0  0  0
   41.6846   -5.4275   44.3553 C   0  0  0  0  0  0  0  0  0  0  0  0
   40.5777   -5.6775   43.5136 C   0  0  0  0  0  0  0  0  0  0  0  0
   40.2545   -6.9427   43.7932 C   0  0  0  0  0  0  0  0  0  0  0  0
   41.0567   -7.5033   44.7449 N   0  0  0  0  0  0  0  0  0  0  0  0
   41.9228   -6.5097   45.0684 N   0  0  0  0  0  0  0  0  0  0  0  0
   41.1596   -8.8895   45.2429 C   0  0  0  0  0  0  0  0  0  0  0  0
   40.2781   -9.3401   46.4383 C   0  0  2  0  0  0  0  0  0  0  0  0
   40.2558  -10.8846   46.6129 C   0  0  0  0  0  0  0  0  0  0  0  0
   40.0283  -11.6442   45.3255 N   0  3  2  0  0  0  0  0  0  0  0  0
   38.6021  -11.5858   44.8402 C   0  0  0  0  0  0  0  0  0  0  0  0
   38.4363  -12.3199   43.4842 C   0  0  0  0  0  0  0  0  0  0  0  0
   38.9981  -13.7642   43.4705 C   0  0  1  0  0  0  0  0  0  0  0  0
   40.4294  -13.7885   44.0420 C   0  0  0  0  0  0  0  0  0  0  0  0
   40.5291  -13.0579   45.3925 C   0  0  0  0  0  0  0  0  0  0  0  0
   38.0759  -14.7331   44.2373 C   0  0  0  0  0  0  0  0  0  0  0  0
   39.0784  -14.2273   42.1149 O   0  0  0  0  0  0  0  0  0  0  0  0
   38.9407   -8.8351   46.3189 O   0  0  0  0  0  0  0  0  0  0  0  0
   39.0814   -7.5943   43.0733 C   0  0  0  0  0  0  0  0  0  0  0  0
   38.6501   -6.8148   41.8149 C   0  0  0  0  0  0  0  0  0  0  0  0
   38.5018   -5.3843   42.1427 N   0  0  0  0  0  0  0  0  0  0  0  0
   39.8379   -4.8352   42.4684 C   0  0  0  0  0  0  0  0  0  0  0  0
   37.4387   -4.5688   41.2116 S   0  0  0  0  0  0  0  0  0  0  0  0
   37.3990   -3.2262   41.6846 O   0  0  0  0  0  0  0  0  0  0  0  0
   36.1451   -5.1506   41.3318 O   0  0  0  0  0  0  0  0  0  0  0  0
   37.9385   -4.5640   39.4651 C   0  0  0  0  0  0  0  0  0  0  0  0
   40.6974   -8.9513   47.2587 H   0  0  0  0  0  0  0  0  0  0  0  0
   41.9504   -8.1749   48.1841 H   0  0  0  0  0  0  0  0  0  0  0  0
   43.5615   -8.0933   48.4515 H   0  0  0  0  0  0  0  0  0  0  0  0
   42.5234   -7.8856   49.6886 H   0  0  0  0  0  0  0  0  0  0  0  0
   42.0661   -6.0521   47.6160 H   0  0  0  0  0  0  0  0  0  0  0  0
   42.2622   -5.9162   50.4682 H   0  0  0  0  0  0  0  0  0  0  0  0
   41.0036   -5.4717   49.4967 H   0  0  0  0  0  0  0  0  0  0  0  0
   43.2303   -3.9014   50.2985 H   0  0  0  0  0  0  0  0  0  0  0  0
   41.6797   -3.4311   50.0202 H   0  0  0  0  0  0  0  0  0  0  0  0
   42.1130   -3.6369   47.7888 H   0  0  0  0  0  0  0  0  0  0  0  0
   44.8514   -3.7629   48.0141 H   0  0  0  0  0  0  0  0  0  0  0  0
   43.9009   -4.1879   46.7287 H   0  0  0  0  0  0  0  0  0  0  0  0
   44.4694   -6.2379   47.4259 H   0  0  0  0  0  0  0  0  0  0  0  0
   44.5928   -5.7722   48.9902 H   0  0  0  0  0  0  0  0  0  0  0  0
   43.7895   -1.7919   47.6137 H   0  0  0  0  0  0  0  0  0  0  0  0
   43.2227   -1.6778   49.1877 H   0  0  0  0  0  0  0  0  0  0  0  0
   41.7443   -0.3389   48.3803 H   0  0  0  0  0  0  0  0  0  0  0  0
   41.0260   -1.7488   47.8519 H   0  0  0  0  0  0  0  0  0  0  0  0
   41.0346   -3.1434   45.4797 H   0  0  0  0  0  0  0  0  0  0  0  0
   44.1289   -4.8963   43.4148 H   0  0  0  0  0  0  0  0  0  0  0  0
   45.3627   -2.8890   43.5751 H   0  0  0  0  0  0  0  0  0  0  0  0
   42.1122   -9.0336   45.5105 H   0  0  0  0  0  0  0  0  0  0  0  0
   40.8167   -9.4383   44.4806 H   0  0  0  0  0  0  0  0  0  0  0  0
   39.5248  -11.1198   47.2534 H   0  0  0  0  0  0  0  0  0  0  0  0
   41.1590  -11.1511   46.9495 H   0  0  0  0  0  0  0  0  0  0  0  0
   40.5319  -11.2225   44.6919 H   0  0  0  0  0  0  0  0  0  0  0  0
   38.3330  -10.6290   44.7303 H   0  0  0  0  0  0  0  0  0  0  0  0
   38.0208  -12.0394   45.5157 H   0  0  0  0  0  0  0  0  0  0  0  0
   38.9088  -11.7903   42.7796 H   0  0  0  0  0  0  0  0  0  0  0  0
   37.4533  -12.3940   43.3161 H   0  0  0  0  0  0  0  0  0  0  0  0
   41.0459  -13.3489   43.3889 H   0  0  0  0  0  0  0  0  0  0  0  0
   40.6833  -14.7441   44.1922 H   0  0  0  0  0  0  0  0  0  0  0  0
   39.9898  -13.5579   46.0702 H   0  0  0  0  0  0  0  0  0  0  0  0
   41.4961  -13.0236   45.6450 H   0  0  0  0  0  0  0  0  0  0  0  0
   37.7584  -15.4450   43.6107 H   0  0  0  0  0  0  0  0  0  0  0  0
   38.5789  -15.1506   44.9941 H   0  0  0  0  0  0  0  0  0  0  0  0
   37.2920  -14.2324   44.6045 H   0  0  0  0  0  0  0  0  0  0  0  0
   39.9749  -14.6425   41.9231 H   0  0  0  0  0  0  0  0  0  0  0  0
   38.5998   -8.9224   45.3764 H   0  0  0  0  0  0  0  0  0  0  0  0
   38.3060   -7.6453   43.7028 H   0  0  0  0  0  0  0  0  0  0  0  0
   39.3748   -8.5037   42.7786 H   0  0  0  0  0  0  0  0  0  0  0  0
   37.7784   -7.1742   41.4818 H   0  0  0  0  0  0  0  0  0  0  0  0
   39.3468   -6.9201   41.1053 H   0  0  0  0  0  0  0  0  0  0  0  0
   40.3868   -4.8029   41.6332 H   0  0  0  0  0  0  0  0  0  0  0  0
   39.7049   -3.9216   42.8526 H   0  0  0  0  0  0  0  0  0  0  0  0
   37.2087   -4.9720   38.9165 H   0  0  0  0  0  0  0  0  0  0  0  0
   38.1019   -3.6247   39.1631 H   0  0  0  0  0  0  0  0  0  0  0  0
   38.7800   -5.0926   39.3543 H   0  0  0  0  0  0  0  0  0  0  0  0
  1  2  1  0  0  0  0
  1 47  1  0  0  0  0
  1 48  1  0  0  0  0
  1 49  1  0  0  0  0
  2  3  1  0  0  0  0
  2  7  1  0  0  0  0
  2 50  1  6  0  0  0
  3  4  1  0  0  0  0
  3 51  1  0  0  0  0
  3 52  1  0  0  0  0
  4  5  1  0  0  0  0
  4 53  1  0  0  0  0
  4 54  1  0  0  0  0
  5  6  1  0  0  0  0
  5  8  1  0  0  0  0
  5 55  1  6  0  0  0
  6  7  1  0  0  0  0
  6 56  1  0  0  0  0
  6 57  1  0  0  0  0
  7 58  1  0  0  0  0
  7 59  1  0  0  0  0
  8  9  1  0  0  0  0
  8 60  1  0  0  0  0
  8 61  1  0  0  0  0
  9 10  1  0  0  0  0
  9 62  1  0  0  0  0
  9 63  1  0  0  0  0
 10 11  1  0  0  0  0
 11 12  2  0  0  0  0
 11 16  1  0  0  0  0
 12 13  1  0  0  0  0
 12 64  1  0  0  0  0
 13 14  2  0  0  0  0
 13 21  1  0  0  0  0
 14 15  1  0  0  0  0
 14 65  1  0  0  0  0
 15 16  2  0  0  0  0
 15 66  1  0  0  0  0
 16 17  1  0  0  0  0
 17 18  1  0  0  0  0
 17 19  1  0  0  0  0
 17 20  1  0  0  0  0
 21 22  1  0  0  0  0
 21 25  2  0  0  0  0
 22 23  2  0  0  0  0
 22 41  1  0  0  0  0
 23 24  1  0  0  0  0
 23 38  1  0  0  0  0
 24 25  1  0  0  0  0
 24 26  1  0  0  0  0
 26 27  1  0  0  0  0
 26 67  1  0  0  0  0
 26 68  1  0  0  0  0
 27 28  1  0  0  0  0
 27 37  1  0  0  0  0
 27 46  1  1  0  0  0
 28 29  1  0  0  0  0
 28 69  1  0  0  0  0
 28 70  1  0  0  0  0
 29 30  1  0  0  0  0
 29 34  1  0  0  0  0
 29 71  1  6  0  0  0
 30 31  1  0  0  0  0
 30 72  1  0  0  0  0
 30 73  1  0  0  0  0
 31 32  1  0  0  0  0
 31 74  1  0  0  0  0
 31 75  1  0  0  0  0
 32 33  1  0  0  0  0
 32 35  1  1  0  0  0
 32 36  1  0  0  0  0
 33 34  1  0  0  0  0
 33 76  1  0  0  0  0
 33 77  1  0  0  0  0
 34 78  1  0  0  0  0
 34 79  1  0  0  0  0
 35 80  1  0  0  0  0
 35 81  1  0  0  0  0
 35 82  1  0  0  0  0
 36 83  1  0  0  0  0
 37 84  1  0  0  0  0
 38 39  1  0  0  0  0
 38 85  1  0  0  0  0
 38 86  1  0  0  0  0
 39 40  1  0  0  0  0
 39 87  1  0  0  0  0
 39 88  1  0  0  0  0
 40 41  1  0  0  0  0
 40 42  1  0  0  0  0
 41 89  1  0  0  0  0
 41 90  1  0  0  0  0
 42 43  2  0  0  0  0
 42 44  2  0  0  0  0
 42 45  1  0  0  0  0
 45 91  1  0  0  0  0
 45 92  1  0  0  0  0
 45 93  1  0  0  0  0
M  CHG  2   5   1  29   1
M  END
