CatS_368:1_D
 OpenBabel12041818463D

 88 93  0  0  0  0  0  0  0  0999 V2000
   46.9328   -2.1347   40.7212 C   0  0  0  0  0  0  0  0  0  0  0  0
   45.8480   -0.9041   41.4981 S   0  0  0  0  0  0  0  0  0  0  0  0
   46.4062    0.3856   41.2501 O   0  0  0  0  0  0  0  0  0  0  0  0
   44.5083   -1.1423   41.0704 O   0  0  0  0  0  0  0  0  0  0  0  0
   45.8736   -1.1273   43.1101 N   0  0  0  0  0  0  0  0  0  0  0  0
   47.1781   -1.0030   43.7985 C   0  0  0  0  0  0  0  0  0  0  0  0
   47.0192   -0.8411   45.3298 C   0  0  0  0  0  0  0  0  0  0  0  0
   45.9891   -1.8092   45.8845 C   0  0  0  0  0  0  0  0  0  0  0  0
   45.1690   -2.4987   45.0844 C   0  0  0  0  0  0  0  0  0  0  0  0
   44.3893   -3.2575   45.9863 C   0  0  0  0  0  0  0  0  0  0  0  0
   44.7753   -2.9625   47.2047 N   0  0  0  0  0  0  0  0  0  0  0  0
   45.7740   -2.0630   47.2022 N   0  0  0  0  0  0  0  0  0  0  0  0
   46.3365   -1.4690   48.4246 C   0  0  0  0  0  0  0  0  0  0  0  0
   45.5904   -0.2110   48.9317 C   0  0  0  0  0  0  0  0  0  0  0  0
   44.0887   -0.5092   49.1480 C   0  0  0  0  0  0  0  0  0  0  0  0
   43.1251    0.2335   48.2585 N   0  3  0  0  0  0  0  0  0  0  0  0
   43.0593    1.6983   48.6177 C   0  0  0  0  0  0  0  0  0  0  0  0
   42.0761    2.4302   47.6856 C   0  0  0  0  0  0  0  0  0  0  0  0
   40.7815    1.8031   47.7391 O   0  0  0  0  0  0  0  0  0  0  0  0
   40.8236    0.4286   47.3077 C   0  0  0  0  0  0  0  0  0  0  0  0
   41.7562   -0.3992   48.2157 C   0  0  0  0  0  0  0  0  0  0  0  0
   43.3504   -4.2448   45.7625 C   0  0  0  0  0  0  0  0  0  0  0  0
   43.2370   -5.2480   46.7132 C   0  0  0  0  0  0  0  0  0  0  0  0
   42.2764   -6.2216   46.5926 C   0  0  0  0  0  0  0  0  0  0  0  0
   41.4161   -6.2115   45.5253 C   0  0  0  0  0  0  0  0  0  0  0  0
   41.4997   -5.2016   44.5667 C   0  0  0  0  0  0  0  0  0  0  0  0
   42.4729   -4.2122   44.6941 C   0  0  0  0  0  0  0  0  0  0  0  0
   40.5598   -5.2480   43.4743 C   0  0  0  0  0  0  0  0  0  0  0  0
   39.7274   -5.3700   42.5889 C   0  0  0  0  0  0  0  0  0  0  0  0
   38.7083   -5.6067   41.5989 C   0  0  0  0  0  0  0  0  0  0  0  0
   37.5378   -4.8593   41.5174 C   0  0  0  0  0  0  0  0  0  0  0  0
   36.6230   -5.1484   40.5363 C   0  0  0  0  0  0  0  0  0  0  0  0
   36.8610   -6.1737   39.6400 C   0  0  0  0  0  0  0  0  0  0  0  0
   38.0175   -6.9247   39.7127 C   0  0  0  0  0  0  0  0  0  0  0  0
   38.9329   -6.6374   40.6932 C   0  0  0  0  0  0  0  0  0  0  0  0
   38.2253   -8.0770   38.7354 C   0  0  0  0  0  0  0  0  0  0  0  0
   39.4362   -7.9481   37.8412 N   0  3  0  0  0  0  0  0  0  0  0  0
   40.6883   -8.6257   38.3449 C   0  0  0  0  0  0  0  0  0  0  0  0
   41.8420   -8.6449   37.3531 C   0  0  0  0  0  0  0  0  0  0  0  0
   42.5468   -7.5012   37.0464 C   0  0  0  0  0  0  0  0  0  0  0  0
   43.5761   -7.5458   36.1333 C   0  0  0  0  0  0  0  0  0  0  0  0
   43.9026   -8.7337   35.5200 C   0  0  0  0  0  0  0  0  0  0  0  0
   43.1999   -9.8773   35.8215 C   0  0  0  0  0  0  0  0  0  0  0  0
   42.1734   -9.8310   36.7364 C   0  0  0  0  0  0  0  0  0  0  0  0
   35.6927   -6.5441   38.4079 Cl  0  0  0  0  0  0  0  0  0  0  0  0
   40.2329   -7.4820   45.3849 Cl  0  0  0  0  0  0  0  0  0  0  0  0
   45.2061   -2.3700   43.5670 C   0  0  0  0  0  0  0  0  0  0  0  0
   47.3350   -2.7100   41.4334 H   0  0  0  0  0  0  0  0  0  0  0  0
   46.4033   -2.7012   40.0896 H   0  0  0  0  0  0  0  0  0  0  0  0
   47.6579   -1.6707   40.2123 H   0  0  0  0  0  0  0  0  0  0  0  0
   47.6602   -0.2052   43.4361 H   0  0  0  0  0  0  0  0  0  0  0  0
   47.6936   -1.8436   43.6321 H   0  0  0  0  0  0  0  0  0  0  0  0
   46.7315    0.0951   45.5314 H   0  0  0  0  0  0  0  0  0  0  0  0
   47.8998   -1.0390   45.7604 H   0  0  0  0  0  0  0  0  0  0  0  0
   47.2873   -1.2184   48.2423 H   0  0  0  0  0  0  0  0  0  0  0  0
   46.2462   -2.1592   49.1425 H   0  0  0  0  0  0  0  0  0  0  0  0
   45.6874    0.5224   48.2589 H   0  0  0  0  0  0  0  0  0  0  0  0
   45.9888    0.0655   49.8062 H   0  0  0  0  0  0  0  0  0  0  0  0
   43.8658   -0.2850   50.0967 H   0  0  0  0  0  0  0  0  0  0  0  0
   43.9730   -1.4749   48.9159 H   0  0  0  0  0  0  0  0  0  0  0  0
   43.4652    0.1937   47.4140 H   0  0  0  0  0  0  0  0  0  0  0  0
   43.9689    2.1035   48.5265 H   0  0  0  0  0  0  0  0  0  0  0  0
   42.7413    1.7889   49.5615 H   0  0  0  0  0  0  0  0  0  0  0  0
   42.4224    2.3998   46.7480 H   0  0  0  0  0  0  0  0  0  0  0  0
   41.9898    3.3808   47.9837 H   0  0  0  0  0  0  0  0  0  0  0  0
   41.1579    0.3886   46.3661 H   0  0  0  0  0  0  0  0  0  0  0  0
   39.9013    0.0461   47.3622 H   0  0  0  0  0  0  0  0  0  0  0  0
   41.3769   -0.4353   49.1402 H   0  0  0  0  0  0  0  0  0  0  0  0
   41.8334   -1.3262   47.8486 H   0  0  0  0  0  0  0  0  0  0  0  0
   43.8612   -5.2625   47.4942 H   0  0  0  0  0  0  0  0  0  0  0  0
   42.2042   -6.9397   47.2848 H   0  0  0  0  0  0  0  0  0  0  0  0
   42.5365   -3.4809   44.0150 H   0  0  0  0  0  0  0  0  0  0  0  0
   37.3649   -4.1190   42.1670 H   0  0  0  0  0  0  0  0  0  0  0  0
   35.7798   -4.6149   40.4695 H   0  0  0  0  0  0  0  0  0  0  0  0
   39.7728   -7.1764   40.7573 H   0  0  0  0  0  0  0  0  0  0  0  0
   37.4139   -8.1424   38.1547 H   0  0  0  0  0  0  0  0  0  0  0  0
   38.3791   -8.8916   39.2944 H   0  0  0  0  0  0  0  0  0  0  0  0
   39.2414   -8.2239   36.9947 H   0  0  0  0  0  0  0  0  0  0  0  0
   39.6293   -7.0654   37.7371 H   0  0  0  0  0  0  0  0  0  0  0  0
   40.4601   -9.5706   38.5797 H   0  0  0  0  0  0  0  0  0  0  0  0
   41.0015   -8.0929   39.1310 H   0  0  0  0  0  0  0  0  0  0  0  0
   42.3099   -6.6362   37.4886 H   0  0  0  0  0  0  0  0  0  0  0  0
   44.0870   -6.7142   35.9155 H   0  0  0  0  0  0  0  0  0  0  0  0
   44.6497   -8.7655   34.8560 H   0  0  0  0  0  0  0  0  0  0  0  0
   43.4348  -10.7412   35.3761 H   0  0  0  0  0  0  0  0  0  0  0  0
   41.6647  -10.6637   36.9551 H   0  0  0  0  0  0  0  0  0  0  0  0
   45.6973   -3.1550   43.1895 H   0  0  0  0  0  0  0  0  0  0  0  0
   44.2595   -2.3376   43.2464 H   0  0  0  0  0  0  0  0  0  0  0  0
  1  2  1  0  0  0  0
  1 48  1  0  0  0  0
  1 49  1  0  0  0  0
  1 50  1  0  0  0  0
  2  3  2  0  0  0  0
  2  4  2  0  0  0  0
  2  5  1  0  0  0  0
  5  6  1  0  0  0  0
  5 47  1  0  0  0  0
  6  7  1  0  0  0  0
  6 51  1  0  0  0  0
  6 52  1  0  0  0  0
  7  8  1  0  0  0  0
  7 53  1  0  0  0  0
  7 54  1  0  0  0  0
  8  9  2  0  0  0  0
  8 12  1  0  0  0  0
  9 10  1  0  0  0  0
  9 47  1  0  0  0  0
 10 11  2  0  0  0  0
 10 22  1  0  0  0  0
 11 12  1  0  0  0  0
 12 13  1  0  0  0  0
 13 14  1  0  0  0  0
 13 55  1  0  0  0  0
 13 56  1  0  0  0  0
 14 15  1  0  0  0  0
 14 57  1  0  0  0  0
 14 58  1  0  0  0  0
 15 16  1  0  0  0  0
 15 59  1  0  0  0  0
 15 60  1  0  0  0  0
 16 17  1  0  0  0  0
 16 21  1  0  0  0  0
 16 61  1  0  0  0  0
 17 18  1  0  0  0  0
 17 62  1  0  0  0  0
 17 63  1  0  0  0  0
 18 19  1  0  0  0  0
 18 64  1  0  0  0  0
 18 65  1  0  0  0  0
 19 20  1  0  0  0  0
 20 21  1  0  0  0  0
 20 66  1  0  0  0  0
 20 67  1  0  0  0  0
 21 68  1  0  0  0  0
 21 69  1  0  0  0  0
 22 23  2  0  0  0  0
 22 27  1  0  0  0  0
 23 24  1  0  0  0  0
 23 70  1  0  0  0  0
 24 25  2  0  0  0  0
 24 71  1  0  0  0  0
 25 26  1  0  0  0  0
 25 46  1  0  0  0  0
 26 27  2  0  0  0  0
 26 28  1  0  0  0  0
 27 72  1  0  0  0  0
 28 29  3  0  0  0  0
 29 30  1  0  0  0  0
 30 31  2  0  0  0  0
 30 35  1  0  0  0  0
 31 32  1  0  0  0  0
 31 73  1  0  0  0  0
 32 33  2  0  0  0  0
 32 74  1  0  0  0  0
 33 34  1  0  0  0  0
 33 45  1  0  0  0  0
 34 35  2  0  0  0  0
 34 36  1  0  0  0  0
 35 75  1  0  0  0  0
 36 37  1  0  0  0  0
 36 76  1  0  0  0  0
 36 77  1  0  0  0  0
 37 38  1  0  0  0  0
 37 78  1  0  0  0  0
 37 79  1  0  0  0  0
 38 39  1  0  0  0  0
 38 80  1  0  0  0  0
 38 81  1  0  0  0  0
 39 40  2  0  0  0  0
 39 44  1  0  0  0  0
 40 41  1  0  0  0  0
 40 82  1  0  0  0  0
 41 42  2  0  0  0  0
 41 83  1  0  0  0  0
 42 43  1  0  0  0  0
 42 84  1  0  0  0  0
 43 44  2  0  0  0  0
 43 85  1  0  0  0  0
 44 86  1  0  0  0  0
 47 87  1  0  0  0  0
 47 88  1  0  0  0  0
M  CHG  2  16   1  37   1
M  END
