CatS_13:1_D
 OpenBabel12041818463D

 98102  0  0  0  0  0  0  0  0999 V2000
   34.9632  -14.6413   45.7057 C   0  0  0  0  0  0  0  0  0  0  0  0
   36.1755  -15.4410   45.1961 C   0  0  0  0  0  0  0  0  0  0  0  0
   37.2140  -15.4611   46.3344 C   0  0  0  0  0  0  0  0  0  0  0  0
   35.6898  -16.8713   44.9013 C   0  0  0  0  0  0  0  0  0  0  0  0
   36.6716  -14.7907   44.0030 O   0  0  0  0  0  0  0  0  0  0  0  0
   37.1196  -13.5063   44.0800 C   0  0  0  0  0  0  0  0  0  0  0  0
   36.3673  -12.5381   44.0002 O   0  0  0  0  0  0  0  0  0  0  0  0
   38.4568  -13.4377   44.2389 N   0  0  0  0  0  0  0  0  0  0  0  0
   39.0304  -12.7645   45.4129 C   0  0  2  0  0  0  0  0  0  0  0  0
   39.2391  -11.2911   45.0201 C   0  0  0  0  0  0  0  0  0  0  0  0
   39.7564  -10.4874   46.2261 C   0  0  0  0  0  0  0  0  0  0  0  0
   41.0444  -11.0748   46.7600 N   0  3  2  0  0  0  0  0  0  0  0  0
   40.9034  -12.5389   47.1004 C   0  0  0  0  0  0  0  0  0  0  0  0
   40.3677  -13.3570   45.9022 C   0  0  0  0  0  0  0  0  0  0  0  0
   41.6547  -10.2883   47.8987 C   0  0  0  0  0  0  0  0  0  0  0  0
   41.0076   -8.8963   48.0340 C   0  0  0  0  0  0  0  0  0  0  0  0
   41.9809   -7.7109   47.8879 C   0  0  0  0  0  0  0  0  0  0  0  0
   41.8328   -6.8145   46.7200 N   0  0  0  0  0  0  0  0  0  0  0  0
   42.3991   -5.6146   46.3978 C   0  0  0  0  0  0  0  0  0  0  0  0
   41.9313   -5.1101   45.2531 C   0  0  0  0  0  0  0  0  0  0  0  0
   41.0078   -6.0793   44.8056 C   0  0  0  0  0  0  0  0  0  0  0  0
   40.9736   -7.0506   45.6942 N   0  0  0  0  0  0  0  0  0  0  0  0
   40.2024   -6.0547   43.5934 C   0  0  0  0  0  0  0  0  0  0  0  0
   39.3251   -5.0149   43.3421 C   0  0  0  0  0  0  0  0  0  0  0  0
   38.5455   -5.0075   42.2108 C   0  0  0  0  0  0  0  0  0  0  0  0
   38.6046   -6.0285   41.2867 C   0  0  0  0  0  0  0  0  0  0  0  0
   39.5036   -7.0616   41.5257 C   0  0  0  0  0  0  0  0  0  0  0  0
   40.2876   -7.0713   42.6587 C   0  0  0  0  0  0  0  0  0  0  0  0
   39.6931   -8.4464   40.3942 S   0  0  0  0  0  0  0  0  0  0  0  0
   40.8719   -7.9293   39.1130 C   0  0  0  0  0  0  0  0  0  0  0  0
   41.4894   -9.1335   38.4279 C   0  0  0  0  0  0  0  0  0  0  0  0
   41.3309  -10.2496   38.9037 O   0  0  0  0  0  0  0  0  0  0  0  0
   42.1467   -8.8830   37.2736 N   0  0  0  0  0  0  0  0  0  0  0  0
   42.5141  -10.0237   36.4147 C   0  0  0  0  0  0  0  0  0  0  0  0
   43.8186   -9.7966   35.6316 C   0  0  0  0  0  0  0  0  0  0  0  0
   43.7912   -8.5090   34.9911 O   0  0  0  0  0  0  0  0  0  0  0  0
   43.7312   -7.4341   35.9457 C   0  0  0  0  0  0  0  0  0  0  0  0
   42.4488   -7.5147   36.7970 C   0  0  0  0  0  0  0  0  0  0  0  0
   37.6514   -5.8489   40.1037 C   0  0  0  0  0  0  0  0  0  0  0  0
   36.6692   -6.8322   40.1177 F   0  0  0  0  0  0  0  0  0  0  0  0
   38.3128   -5.9647   38.8835 F   0  0  0  0  0  0  0  0  0  0  0  0
   37.0102   -4.6165   40.0744 F   0  0  0  0  0  0  0  0  0  0  0  0
   42.3767   -3.7667   44.6888 C   0  0  0  0  0  0  0  0  0  0  0  0
   42.9926   -2.9012   45.7181 N   0  0  0  0  0  0  0  0  0  0  0  0
   44.0474   -3.6666   46.4080 C   0  0  0  0  0  0  0  0  0  0  0  0
   43.4339   -4.8377   47.2038 C   0  0  0  0  0  0  0  0  0  0  0  0
   43.4166   -1.3991   45.2932 S   0  0  0  0  0  0  0  0  0  0  0  0
   44.0082   -0.8005   46.4435 O   0  0  0  0  0  0  0  0  0  0  0  0
   42.2500   -0.7907   44.7417 O   0  0  0  0  0  0  0  0  0  0  0  0
   44.6640   -1.5163   43.9815 C   0  0  0  0  0  0  0  0  0  0  0  0
   34.8053  -13.8651   45.0952 H   0  0  0  0  0  0  0  0  0  0  0  0
   34.1535  -15.2280   45.7207 H   0  0  0  0  0  0  0  0  0  0  0  0
   35.1431  -14.3110   46.6323 H   0  0  0  0  0  0  0  0  0  0  0  0
   38.0495  -15.0102   46.0208 H   0  0  0  0  0  0  0  0  0  0  0  0
   36.8503  -14.9797   47.1319 H   0  0  0  0  0  0  0  0  0  0  0  0
   37.4157  -16.4068   46.5893 H   0  0  0  0  0  0  0  0  0  0  0  0
   35.8177  -17.0645   43.9285 H   0  0  0  0  0  0  0  0  0  0  0  0
   36.2143  -17.5253   45.4464 H   0  0  0  0  0  0  0  0  0  0  0  0
   34.7215  -16.9534   45.1375 H   0  0  0  0  0  0  0  0  0  0  0  0
   38.9929  -13.7787   43.6270 H   0  0  0  0  0  0  0  0  0  0  0  0
   38.3956  -12.8837   46.1763 H   0  0  0  0  0  0  0  0  0  0  0  0
   38.3706  -10.9042   44.7102 H   0  0  0  0  0  0  0  0  0  0  0  0
   39.9138  -11.2425   44.2837 H   0  0  0  0  0  0  0  0  0  0  0  0
   39.0652  -10.4985   46.9487 H   0  0  0  0  0  0  0  0  0  0  0  0
   39.9356   -9.5494   45.9293 H   0  0  0  0  0  0  0  0  0  0  0  0
   41.6432  -11.0324   46.0730 H   0  0  0  0  0  0  0  0  0  0  0  0
   40.2716  -12.6347   47.8694 H   0  0  0  0  0  0  0  0  0  0  0  0
   41.8088  -12.8919   47.3367 H   0  0  0  0  0  0  0  0  0  0  0  0
   41.0343  -13.3330   45.1573 H   0  0  0  0  0  0  0  0  0  0  0  0
   40.2203  -14.3026   46.1923 H   0  0  0  0  0  0  0  0  0  0  0  0
   42.6346  -10.1791   47.7317 H   0  0  0  0  0  0  0  0  0  0  0  0
   41.4950  -10.7911   48.7483 H   0  0  0  0  0  0  0  0  0  0  0  0
   40.5772   -8.8386   48.9348 H   0  0  0  0  0  0  0  0  0  0  0  0
   40.3555   -8.8162   47.2801 H   0  0  0  0  0  0  0  0  0  0  0  0
   42.9060   -8.0893   47.8570 H   0  0  0  0  0  0  0  0  0  0  0  0
   41.7720   -7.1256   48.6713 H   0  0  0  0  0  0  0  0  0  0  0  0
   39.2576   -4.2584   43.9927 H   0  0  0  0  0  0  0  0  0  0  0  0
   37.9202   -4.2430   42.0541 H   0  0  0  0  0  0  0  0  0  0  0  0
   40.9280   -7.8248   42.8078 H   0  0  0  0  0  0  0  0  0  0  0  0
   41.5954   -7.3818   39.5334 H   0  0  0  0  0  0  0  0  0  0  0  0
   40.3825   -7.3896   38.4279 H   0  0  0  0  0  0  0  0  0  0  0  0
   41.7729  -10.1844   35.7630 H   0  0  0  0  0  0  0  0  0  0  0  0
   42.6615  -10.8111   37.0134 H   0  0  0  0  0  0  0  0  0  0  0  0
   43.9196  -10.5112   34.9393 H   0  0  0  0  0  0  0  0  0  0  0  0
   44.5914   -9.8297   36.2654 H   0  0  0  0  0  0  0  0  0  0  0  0
   43.7473   -6.5614   35.4576 H   0  0  0  0  0  0  0  0  0  0  0  0
   44.5199   -7.5087   36.5560 H   0  0  0  0  0  0  0  0  0  0  0  0
   42.5542   -6.9166   37.5915 H   0  0  0  0  0  0  0  0  0  0  0  0
   41.6888   -7.2308   36.2124 H   0  0  0  0  0  0  0  0  0  0  0  0
   41.5812   -3.2979   44.3050 H   0  0  0  0  0  0  0  0  0  0  0  0
   43.0670   -3.9437   43.9873 H   0  0  0  0  0  0  0  0  0  0  0  0
   44.5387   -3.0615   47.0345 H   0  0  0  0  0  0  0  0  0  0  0  0
   44.6771   -4.0366   45.7249 H   0  0  0  0  0  0  0  0  0  0  0  0
   44.1660   -5.4626   47.4749 H   0  0  0  0  0  0  0  0  0  0  0  0
   42.9693   -4.4508   48.0004 H   0  0  0  0  0  0  0  0  0  0  0  0
   44.2868   -1.1332   43.1383 H   0  0  0  0  0  0  0  0  0  0  0  0
   45.4821   -1.0062   44.2468 H   0  0  0  0  0  0  0  0  0  0  0  0
   44.9107   -2.4745   43.8363 H   0  0  0  0  0  0  0  0  0  0  0  0
  1  2  1  0  0  0  0
  1 51  1  0  0  0  0
  1 52  1  0  0  0  0
  1 53  1  0  0  0  0
  2  3  1  0  0  0  0
  2  4  1  0  0  0  0
  2  5  1  0  0  0  0
  3 54  1  0  0  0  0
  3 55  1  0  0  0  0
  3 56  1  0  0  0  0
  4 57  1  0  0  0  0
  4 58  1  0  0  0  0
  4 59  1  0  0  0  0
  5  6  1  0  0  0  0
  6  7  2  0  0  0  0
  6  8  1  0  0  0  0
  8  9  1  0  0  0  0
  8 60  1  0  0  0  0
  9 10  1  0  0  0  0
  9 14  1  0  0  0  0
  9 61  1  1  0  0  0
 10 11  1  0  0  0  0
 10 62  1  0  0  0  0
 10 63  1  0  0  0  0
 11 12  1  0  0  0  0
 11 64  1  0  0  0  0
 11 65  1  0  0  0  0
 12 13  1  0  0  0  0
 12 15  1  0  0  0  0
 12 66  1  6  0  0  0
 13 14  1  0  0  0  0
 13 67  1  0  0  0  0
 13 68  1  0  0  0  0
 14 69  1  0  0  0  0
 14 70  1  0  0  0  0
 15 16  1  0  0  0  0
 15 71  1  0  0  0  0
 15 72  1  0  0  0  0
 16 17  1  0  0  0  0
 16 73  1  0  0  0  0
 16 74  1  0  0  0  0
 17 18  1  0  0  0  0
 17 75  1  0  0  0  0
 17 76  1  0  0  0  0
 18 19  1  0  0  0  0
 18 22  1  0  0  0  0
 19 20  2  0  0  0  0
 19 46  1  0  0  0  0
 20 21  1  0  0  0  0
 20 43  1  0  0  0  0
 21 22  2  0  0  0  0
 21 23  1  0  0  0  0
 23 24  2  0  0  0  0
 23 28  1  0  0  0  0
 24 25  1  0  0  0  0
 24 77  1  0  0  0  0
 25 26  2  0  0  0  0
 25 78  1  0  0  0  0
 26 27  1  0  0  0  0
 26 39  1  0  0  0  0
 27 28  2  0  0  0  0
 27 29  1  0  0  0  0
 28 79  1  0  0  0  0
 29 30  1  0  0  0  0
 30 31  1  0  0  0  0
 30 80  1  0  0  0  0
 30 81  1  0  0  0  0
 31 32  2  0  0  0  0
 31 33  1  0  0  0  0
 33 34  1  0  0  0  0
 33 38  1  0  0  0  0
 34 35  1  0  0  0  0
 34 82  1  0  0  0  0
 34 83  1  0  0  0  0
 35 36  1  0  0  0  0
 35 84  1  0  0  0  0
 35 85  1  0  0  0  0
 36 37  1  0  0  0  0
 37 38  1  0  0  0  0
 37 86  1  0  0  0  0
 37 87  1  0  0  0  0
 38 88  1  0  0  0  0
 38 89  1  0  0  0  0
 39 40  1  0  0  0  0
 39 41  1  0  0  0  0
 39 42  1  0  0  0  0
 43 44  1  0  0  0  0
 43 90  1  0  0  0  0
 43 91  1  0  0  0  0
 44 45  1  0  0  0  0
 44 47  1  0  0  0  0
 45 46  1  0  0  0  0
 45 92  1  0  0  0  0
 45 93  1  0  0  0  0
 46 94  1  0  0  0  0
 46 95  1  0  0  0  0
 47 48  2  0  0  0  0
 47 49  2  0  0  0  0
 47 50  1  0  0  0  0
 50 96  1  0  0  0  0
 50 97  1  0  0  0  0
 50 98  1  0  0  0  0
M  CHG  1  12   1
M  END
