CatS_415:1_D
 OpenBabel12041818463D

 84 88  0  0  1  0  0  0  0  0999 V2000
   51.5157   -5.6029   38.8140 C   0  0  0  0  0  0  0  0  0  0  0  0
   52.5408   -4.5753   39.3272 C   0  0  0  0  0  0  0  0  0  0  0  0
   51.9949   -3.7391   40.4546 N   0  3  0  0  0  0  0  0  0  0  0  0
   51.5447   -2.3522   40.0745 C   0  0  0  0  0  0  0  0  0  0  0  0
   50.0735   -2.3134   39.6888 C   0  0  0  0  0  0  0  0  0  0  0  0
   49.1025   -2.3007   40.6588 C   0  0  0  0  0  0  0  0  0  0  0  0
   47.7579   -2.2728   40.3014 C   0  0  0  0  0  0  0  0  0  0  0  0
   47.4023   -2.2554   38.9574 C   0  0  0  0  0  0  0  0  0  0  0  0
   48.3770   -2.2654   37.9940 C   0  0  0  0  0  0  0  0  0  0  0  0
   49.7090   -2.2942   38.3556 C   0  0  0  0  0  0  0  0  0  0  0  0
   50.9381   -2.3068   37.1253 Cl  0  0  0  0  0  0  0  0  0  0  0  0
   46.7345   -2.2662   41.3143 C   0  0  0  0  0  0  0  0  0  0  0  0
   45.8652   -2.2605   42.1701 C   0  0  0  0  0  0  0  0  0  0  0  0
   44.8367   -2.2617   43.1775 C   0  0  0  0  0  0  0  0  0  0  0  0
   43.9286   -3.3102   43.2581 C   0  0  0  0  0  0  0  0  0  0  0  0
   42.9470   -3.3161   44.2269 C   0  0  0  0  0  0  0  0  0  0  0  0
   42.8780   -2.2494   45.1157 C   0  0  0  0  0  0  0  0  0  0  0  0
   43.7751   -1.2057   45.0406 C   0  0  0  0  0  0  0  0  0  0  0  0
   44.7544   -1.2048   44.0784 C   0  0  0  0  0  0  0  0  0  0  0  0
   45.8863    0.1118   43.9811 Cl  0  0  0  0  0  0  0  0  0  0  0  0
   42.0152   -4.4320   44.2771 C   0  0  0  0  0  0  0  0  0  0  0  0
   41.9963   -5.5446   45.1510 C   0  0  0  0  0  0  0  0  0  0  0  0
   40.9210   -6.2349   44.7611 C   0  0  0  0  0  0  0  0  0  0  0  0
   40.2781   -5.6537   43.7158 N   0  0  0  0  0  0  0  0  0  0  0  0
   40.9952   -4.5382   43.4526 N   0  0  0  0  0  0  0  0  0  0  0  0
   39.0276   -6.0276   43.0373 C   0  0  0  0  0  0  0  0  0  0  0  0
   39.1273   -7.1173   41.9548 C   0  0  0  0  0  0  0  0  0  0  0  0
   38.9938   -6.5068   40.5453 C   0  0  0  0  0  0  0  0  0  0  0  0
   37.5947   -6.5762   39.9766 N   0  3  2  0  0  0  0  0  0  0  0  0
   37.6190   -6.5139   38.4678 C   0  0  0  0  0  0  0  0  0  0  0  0
   36.1928   -6.6200   37.8950 C   0  0  0  0  0  0  0  0  0  0  0  0
   35.3284   -5.6414   38.5014 O   0  0  0  0  0  0  0  0  0  0  0  0
   35.2114   -5.8248   39.9242 C   0  0  0  0  0  0  0  0  0  0  0  0
   36.5790   -5.6412   40.6133 C   0  0  2  0  0  0  0  0  0  0  0  0
   36.9655   -4.1475   40.5643 C   0  0  0  0  0  0  0  0  0  0  0  0
   40.4756   -7.5108   45.4563 C   0  0  0  0  0  0  0  0  0  0  0  0
   41.6090   -8.1840   46.2643 C   0  0  0  0  0  0  0  0  0  0  0  0
   42.5661   -7.2616   46.9114 N   0  0  0  0  0  0  0  0  0  0  0  0
   42.9082   -5.9605   46.2968 C   0  0  0  0  0  0  0  0  0  0  0  0
   43.2022   -7.6102   48.0469 C   0  0  0  0  0  0  0  0  0  0  0  0
   43.9519   -6.8678   48.6666 O   0  0  0  0  0  0  0  0  0  0  0  0
   43.0801   -8.9570   48.6614 C   0  0  0  0  0  0  0  0  0  0  0  0
   42.7549   -9.9470   48.0225 O   0  0  0  0  0  0  0  0  0  0  0  0
   43.3911   -8.9830   49.9642 N   0  0  0  0  0  0  0  0  0  0  0  0
   36.5448   -5.8928   41.5806 H   0  0  0  0  0  0  0  0  0  0  0  0
   50.8769   -5.1447   38.1959 H   0  0  0  0  0  0  0  0  0  0  0  0
   51.9882   -6.3370   38.3264 H   0  0  0  0  0  0  0  0  0  0  0  0
   51.0159   -5.9945   39.5866 H   0  0  0  0  0  0  0  0  0  0  0  0
   52.7999   -3.9726   38.5723 H   0  0  0  0  0  0  0  0  0  0  0  0
   53.3311   -5.0791   39.6759 H   0  0  0  0  0  0  0  0  0  0  0  0
   51.2900   -4.1796   40.8276 H   0  0  0  0  0  0  0  0  0  0  0  0
   52.6088   -3.6975   41.1259 H   0  0  0  0  0  0  0  0  0  0  0  0
   52.0922   -2.0349   39.3002 H   0  0  0  0  0  0  0  0  0  0  0  0
   51.6687   -1.7596   40.8704 H   0  0  0  0  0  0  0  0  0  0  0  0
   49.3619   -2.3115   41.6245 H   0  0  0  0  0  0  0  0  0  0  0  0
   46.4378   -2.2357   38.6944 H   0  0  0  0  0  0  0  0  0  0  0  0
   48.1227   -2.2518   37.0269 H   0  0  0  0  0  0  0  0  0  0  0  0
   43.9874   -4.0676   42.6077 H   0  0  0  0  0  0  0  0  0  0  0  0
   42.1676   -2.2392   45.8194 H   0  0  0  0  0  0  0  0  0  0  0  0
   43.7125   -0.4469   45.6889 H   0  0  0  0  0  0  0  0  0  0  0  0
   38.6563   -5.2041   42.6084 H   0  0  0  0  0  0  0  0  0  0  0  0
   38.4490   -6.4211   43.7517 H   0  0  0  0  0  0  0  0  0  0  0  0
   38.3982   -7.7873   42.0945 H   0  0  0  0  0  0  0  0  0  0  0  0
   40.0219   -7.5583   42.0270 H   0  0  0  0  0  0  0  0  0  0  0  0
   39.6112   -6.9960   39.9292 H   0  0  0  0  0  0  0  0  0  0  0  0
   39.2243   -5.5372   40.6266 H   0  0  0  0  0  0  0  0  0  0  0  0
   37.2968   -7.4165   40.1719 H   0  0  0  0  0  0  0  0  0  0  0  0
   38.1737   -7.2677   38.1156 H   0  0  0  0  0  0  0  0  0  0  0  0
   38.0116   -5.6376   38.1888 H   0  0  0  0  0  0  0  0  0  0  0  0
   35.8327   -7.5357   38.0733 H   0  0  0  0  0  0  0  0  0  0  0  0
   36.2281   -6.4505   36.9101 H   0  0  0  0  0  0  0  0  0  0  0  0
   34.8685   -6.7455   40.1106 H   0  0  0  0  0  0  0  0  0  0  0  0
   34.5774   -5.1408   40.2848 H   0  0  0  0  0  0  0  0  0  0  0  0
   36.2420   -3.6392   40.0972 H   0  0  0  0  0  0  0  0  0  0  0  0
   37.0773   -3.7968   41.4940 H   0  0  0  0  0  0  0  0  0  0  0  0
   37.8278   -4.0390   40.0696 H   0  0  0  0  0  0  0  0  0  0  0  0
   40.1478   -8.1545   44.7649 H   0  0  0  0  0  0  0  0  0  0  0  0
   39.7544   -7.2632   46.1032 H   0  0  0  0  0  0  0  0  0  0  0  0
   42.1214   -8.7770   45.6432 H   0  0  0  0  0  0  0  0  0  0  0  0
   41.1588   -8.6762   47.0094 H   0  0  0  0  0  0  0  0  0  0  0  0
   42.8631   -5.2561   47.0052 H   0  0  0  0  0  0  0  0  0  0  0  0
   43.8240   -6.0629   45.9085 H   0  0  0  0  0  0  0  0  0  0  0  0
   43.6211   -8.2442   50.3825 H   0  0  0  0  0  0  0  0  0  0  0  0
   43.3660   -9.7447   50.4041 H   0  0  0  0  0  0  0  0  0  0  0  0
  1  2  1  0  0  0  0
  1 46  1  0  0  0  0
  1 47  1  0  0  0  0
  1 48  1  0  0  0  0
  2  3  1  0  0  0  0
  2 49  1  0  0  0  0
  2 50  1  0  0  0  0
  3  4  1  0  0  0  0
  3 51  1  0  0  0  0
  3 52  1  0  0  0  0
  4  5  1  0  0  0  0
  4 53  1  0  0  0  0
  4 54  1  0  0  0  0
  5  6  2  0  0  0  0
  5 10  1  0  0  0  0
  6  7  1  0  0  0  0
  6 55  1  0  0  0  0
  7  8  2  0  0  0  0
  7 12  1  0  0  0  0
  8  9  1  0  0  0  0
  8 56  1  0  0  0  0
  9 10  2  0  0  0  0
  9 57  1  0  0  0  0
 10 11  1  0  0  0  0
 12 13  3  0  0  0  0
 13 14  1  0  0  0  0
 14 15  2  0  0  0  0
 14 19  1  0  0  0  0
 15 16  1  0  0  0  0
 15 58  1  0  0  0  0
 16 17  2  0  0  0  0
 16 21  1  0  0  0  0
 17 18  1  0  0  0  0
 17 59  1  0  0  0  0
 18 19  2  0  0  0  0
 18 60  1  0  0  0  0
 19 20  1  0  0  0  0
 21 22  1  0  0  0  0
 21 25  2  0  0  0  0
 22 23  2  0  0  0  0
 22 39  1  0  0  0  0
 23 24  1  0  0  0  0
 23 36  1  0  0  0  0
 24 25  1  0  0  0  0
 24 26  1  0  0  0  0
 26 27  1  0  0  0  0
 26 61  1  0  0  0  0
 26 62  1  0  0  0  0
 27 28  1  0  0  0  0
 27 63  1  0  0  0  0
 27 64  1  0  0  0  0
 28 29  1  0  0  0  0
 28 65  1  0  0  0  0
 28 66  1  0  0  0  0
 29 30  1  0  0  0  0
 29 34  1  0  0  0  0
 29 67  1  1  0  0  0
 30 31  1  0  0  0  0
 30 68  1  0  0  0  0
 30 69  1  0  0  0  0
 31 32  1  0  0  0  0
 31 70  1  0  0  0  0
 31 71  1  0  0  0  0
 32 33  1  0  0  0  0
 33 34  1  0  0  0  0
 33 72  1  0  0  0  0
 33 73  1  0  0  0  0
 34 35  1  0  0  0  0
 34 45  1  1  0  0  0
 35 74  1  0  0  0  0
 35 75  1  0  0  0  0
 35 76  1  0  0  0  0
 36 37  1  0  0  0  0
 36 77  1  0  0  0  0
 36 78  1  0  0  0  0
 37 38  1  0  0  0  0
 37 79  1  0  0  0  0
 37 80  1  0  0  0  0
 38 39  1  0  0  0  0
 38 40  1  0  0  0  0
 39 81  1  0  0  0  0
 39 82  1  0  0  0  0
 40 41  2  0  0  0  0
 40 42  1  0  0  0  0
 42 43  2  0  0  0  0
 42 44  1  0  0  0  0
 44 83  1  0  0  0  0
 44 84  1  0  0  0  0
M  CHG  2   3   1  29   1
M  END
