CatS_386:1_D
 OpenBabel12041818463D

 93 99  0  0  1  0  0  0  0  0999 V2000
   44.5368   -7.7478   48.6868 C   0  0  0  0  0  0  0  0  0  0  0  0
   42.8971   -7.0381   48.9973 S   0  0  0  0  0  0  0  0  0  0  0  0
   42.1377   -7.9900   49.7404 O   0  0  0  0  0  0  0  0  0  0  0  0
   43.0749   -5.7485   49.5794 O   0  0  0  0  0  0  0  0  0  0  0  0
   42.1658   -6.7861   47.5609 N   0  0  0  0  0  0  0  0  0  0  0  0
   41.7429   -7.9461   46.7477 C   0  0  0  0  0  0  0  0  0  0  0  0
   40.5799   -7.5640   45.8011 C   0  0  0  0  0  0  0  0  0  0  0  0
   40.9269   -6.3109   45.0176 C   0  0  0  0  0  0  0  0  0  0  0  0
   41.9047   -5.4892   45.4059 C   0  0  0  0  0  0  0  0  0  0  0  0
   41.9333   -4.5030   44.3914 C   0  0  0  0  0  0  0  0  0  0  0  0
   40.9850   -4.7787   43.5209 N   0  0  0  0  0  0  0  0  0  0  0  0
   40.3168   -5.8983   43.8786 N   0  0  0  0  0  0  0  0  0  0  0  0
   39.1442   -6.4333   43.1729 C   0  0  0  0  0  0  0  0  0  0  0  0
   39.2370   -6.3764   41.6372 C   0  0  0  0  0  0  0  0  0  0  0  0
   38.7034   -5.0372   41.0722 C   0  0  0  0  0  0  0  0  0  0  0  0
   37.6265   -5.2111   40.0301 N   0  3  0  0  0  0  0  0  0  0  0  0
   36.2434   -5.3318   40.6207 C   0  0  0  0  0  0  0  0  0  0  0  0
   35.2075   -5.4775   39.4891 C   0  0  0  0  0  0  0  0  0  0  0  0
   35.5344   -6.6013   38.6499 O   0  0  0  0  0  0  0  0  0  0  0  0
   36.8232   -6.4595   38.0223 C   0  0  0  0  0  0  0  0  0  0  0  0
   37.9345   -6.3447   39.0845 C   0  0  0  0  0  0  0  0  0  0  0  0
   42.8333   -3.3710   44.2424 C   0  0  0  0  0  0  0  0  0  0  0  0
   42.7044   -2.2828   45.0928 C   0  0  0  0  0  0  0  0  0  0  0  0
   43.5379   -1.1921   44.9789 C   0  0  0  0  0  0  0  0  0  0  0  0
   44.5191   -1.1658   44.0172 C   0  0  0  0  0  0  0  0  0  0  0  0
   44.6739   -2.2560   43.1644 C   0  0  0  0  0  0  0  0  0  0  0  0
   43.8269   -3.3531   43.2831 C   0  0  0  0  0  0  0  0  0  0  0  0
   45.7113   -2.2672   42.1642 C   0  0  0  0  0  0  0  0  0  0  0  0
   46.5809   -2.3004   41.3090 C   0  0  0  0  0  0  0  0  0  0  0  0
   47.5992   -2.3599   40.2924 C   0  0  0  0  0  0  0  0  0  0  0  0
   47.2552   -2.4060   38.9463 C   0  0  0  0  0  0  0  0  0  0  0  0
   48.2396   -2.4630   37.9933 C   0  0  0  0  0  0  0  0  0  0  0  0
   49.5709   -2.4671   38.3588 C   0  0  0  0  0  0  0  0  0  0  0  0
   49.9181   -2.4136   39.6978 C   0  0  0  0  0  0  0  0  0  0  0  0
   48.9403   -2.3649   40.6591 C   0  0  0  0  0  0  0  0  0  0  0  0
   51.3780   -2.3909   40.1264 C   0  0  0  0  0  0  0  0  0  0  0  0
   52.2606   -2.9856   39.0606 N   0  3  0  0  0  0  0  0  0  0  0  0
   52.0971   -2.3770   37.6927 C   0  0  2  0  0  0  0  0  0  0  0  0
   50.6195   -2.5357   37.2541 C   0  0  0  0  0  0  0  0  0  0  0  0
   53.1028   -3.0907   36.8058 C   0  0  0  0  0  0  0  0  0  0  0  0
   53.4611   -4.2261   37.0872 O   0  0  0  0  0  0  0  0  0  0  0  0
   53.5965   -2.3830   35.7670 N   0  0  0  0  0  0  0  0  0  0  0  0
   54.7325   -2.8970   34.9909 C   0  0  0  0  0  0  0  0  0  0  0  0
   55.3065   -1.5911   34.4284 C   0  0  0  0  0  0  0  0  0  0  0  0
   54.0714   -0.7246   34.1652 C   0  0  0  0  0  0  0  0  0  0  0  0
   53.0779   -1.0909   35.2815 C   0  0  0  0  0  0  0  0  0  0  0  0
   45.5642    0.2181   43.8728 Cl  0  0  0  0  0  0  0  0  0  0  0  0
   42.7151   -5.7316   46.6742 C   0  0  0  0  0  0  0  0  0  0  0  0
   52.2811   -1.3950   37.6511 H   0  0  0  0  0  0  0  0  0  0  0  0
   44.6683   -7.8442   47.7002 H   0  0  0  0  0  0  0  0  0  0  0  0
   45.2418   -7.1470   49.0634 H   0  0  0  0  0  0  0  0  0  0  0  0
   44.6044   -8.6438   49.1256 H   0  0  0  0  0  0  0  0  0  0  0  0
   41.4451   -8.6824   47.3554 H   0  0  0  0  0  0  0  0  0  0  0  0
   42.5188   -8.2463   46.1928 H   0  0  0  0  0  0  0  0  0  0  0  0
   39.7539   -7.4005   46.3405 H   0  0  0  0  0  0  0  0  0  0  0  0
   40.4241   -8.3145   45.1589 H   0  0  0  0  0  0  0  0  0  0  0  0
   38.3414   -5.9100   43.4586 H   0  0  0  0  0  0  0  0  0  0  0  0
   39.0863   -7.4017   43.4154 H   0  0  0  0  0  0  0  0  0  0  0  0
   38.7017   -7.1281   41.2521 H   0  0  0  0  0  0  0  0  0  0  0  0
   40.2011   -6.4545   41.3834 H   0  0  0  0  0  0  0  0  0  0  0  0
   39.4669   -4.5383   40.6620 H   0  0  0  0  0  0  0  0  0  0  0  0
   38.2943   -4.5378   41.8359 H   0  0  0  0  0  0  0  0  0  0  0  0
   37.6308   -4.4540   39.5225 H   0  0  0  0  0  0  0  0  0  0  0  0
   36.0380   -4.5150   41.1599 H   0  0  0  0  0  0  0  0  0  0  0  0
   36.2041   -6.1383   41.2105 H   0  0  0  0  0  0  0  0  0  0  0  0
   35.1997   -4.6430   38.9381 H   0  0  0  0  0  0  0  0  0  0  0  0
   34.3053   -5.6281   39.8932 H   0  0  0  0  0  0  0  0  0  0  0  0
   36.8241   -5.6380   37.4521 H   0  0  0  0  0  0  0  0  0  0  0  0
   36.9985   -7.2678   37.4603 H   0  0  0  0  0  0  0  0  0  0  0  0
   37.9947   -7.2002   39.5986 H   0  0  0  0  0  0  0  0  0  0  0  0
   38.8063   -6.1650   38.6286 H   0  0  0  0  0  0  0  0  0  0  0  0
   41.9961   -2.2902   45.7987 H   0  0  0  0  0  0  0  0  0  0  0  0
   43.4285   -0.4155   45.5992 H   0  0  0  0  0  0  0  0  0  0  0  0
   43.9382   -4.1347   42.6693 H   0  0  0  0  0  0  0  0  0  0  0  0
   46.2931   -2.3975   38.6736 H   0  0  0  0  0  0  0  0  0  0  0  0
   47.9910   -2.5020   37.0254 H   0  0  0  0  0  0  0  0  0  0  0  0
   49.1929   -2.3329   41.6261 H   0  0  0  0  0  0  0  0  0  0  0  0
   51.4810   -2.9162   40.9710 H   0  0  0  0  0  0  0  0  0  0  0  0
   51.6528   -1.4406   40.2733 H   0  0  0  0  0  0  0  0  0  0  0  0
   52.1220   -3.8844   39.0159 H   0  0  0  0  0  0  0  0  0  0  0  0
   53.1326   -2.9083   39.3124 H   0  0  0  0  0  0  0  0  0  0  0  0
   50.4163   -1.8115   36.5951 H   0  0  0  0  0  0  0  0  0  0  0  0
   50.5530   -3.4621   36.8835 H   0  0  0  0  0  0  0  0  0  0  0  0
   54.4345   -3.5152   34.2635 H   0  0  0  0  0  0  0  0  0  0  0  0
   55.3836   -3.4420   35.5193 H   0  0  0  0  0  0  0  0  0  0  0  0
   55.8128   -1.7590   33.5825 H   0  0  0  0  0  0  0  0  0  0  0  0
   55.9541   -1.1554   35.0535 H   0  0  0  0  0  0  0  0  0  0  0  0
   53.6835   -0.9275   33.2661 H   0  0  0  0  0  0  0  0  0  0  0  0
   54.2915    0.2509   34.1668 H   0  0  0  0  0  0  0  0  0  0  0  0
   53.0790   -0.4041   36.0084 H   0  0  0  0  0  0  0  0  0  0  0  0
   52.1296   -1.1370   34.9675 H   0  0  0  0  0  0  0  0  0  0  0  0
   43.6427   -5.9953   46.4098 H   0  0  0  0  0  0  0  0  0  0  0  0
   42.6883   -4.8786   47.1955 H   0  0  0  0  0  0  0  0  0  0  0  0
  1  2  1  0  0  0  0
  1 50  1  0  0  0  0
  1 51  1  0  0  0  0
  1 52  1  0  0  0  0
  2  3  2  0  0  0  0
  2  4  2  0  0  0  0
  2  5  1  0  0  0  0
  5  6  1  0  0  0  0
  5 48  1  0  0  0  0
  6  7  1  0  0  0  0
  6 53  1  0  0  0  0
  6 54  1  0  0  0  0
  7  8  1  0  0  0  0
  7 55  1  0  0  0  0
  7 56  1  0  0  0  0
  8  9  2  0  0  0  0
  8 12  1  0  0  0  0
  9 10  1  0  0  0  0
  9 48  1  0  0  0  0
 10 11  2  0  0  0  0
 10 22  1  0  0  0  0
 11 12  1  0  0  0  0
 12 13  1  0  0  0  0
 13 14  1  0  0  0  0
 13 57  1  0  0  0  0
 13 58  1  0  0  0  0
 14 15  1  0  0  0  0
 14 59  1  0  0  0  0
 14 60  1  0  0  0  0
 15 16  1  0  0  0  0
 15 61  1  0  0  0  0
 15 62  1  0  0  0  0
 16 17  1  0  0  0  0
 16 21  1  0  0  0  0
 16 63  1  0  0  0  0
 17 18  1  0  0  0  0
 17 64  1  0  0  0  0
 17 65  1  0  0  0  0
 18 19  1  0  0  0  0
 18 66  1  0  0  0  0
 18 67  1  0  0  0  0
 19 20  1  0  0  0  0
 20 21  1  0  0  0  0
 20 68  1  0  0  0  0
 20 69  1  0  0  0  0
 21 70  1  0  0  0  0
 21 71  1  0  0  0  0
 22 23  2  0  0  0  0
 22 27  1  0  0  0  0
 23 24  1  0  0  0  0
 23 72  1  0  0  0  0
 24 25  2  0  0  0  0
 24 73  1  0  0  0  0
 25 26  1  0  0  0  0
 25 47  1  0  0  0  0
 26 27  2  0  0  0  0
 26 28  1  0  0  0  0
 27 74  1  0  0  0  0
 28 29  3  0  0  0  0
 29 30  1  0  0  0  0
 30 31  2  0  0  0  0
 30 35  1  0  0  0  0
 31 32  1  0  0  0  0
 31 75  1  0  0  0  0
 32 33  2  0  0  0  0
 32 76  1  0  0  0  0
 33 34  1  0  0  0  0
 33 39  1  0  0  0  0
 34 35  2  0  0  0  0
 34 36  1  0  0  0  0
 35 77  1  0  0  0  0
 36 37  1  0  0  0  0
 36 78  1  0  0  0  0
 36 79  1  0  0  0  0
 37 38  1  0  0  0  0
 37 80  1  0  0  0  0
 37 81  1  0  0  0  0
 38 39  1  0  0  0  0
 38 40  1  0  0  0  0
 38 49  1  1  0  0  0
 39 82  1  0  0  0  0
 39 83  1  0  0  0  0
 40 41  2  0  0  0  0
 40 42  1  0  0  0  0
 42 43  1  0  0  0  0
 42 46  1  0  0  0  0
 43 44  1  0  0  0  0
 43 84  1  0  0  0  0
 43 85  1  0  0  0  0
 44 45  1  0  0  0  0
 44 86  1  0  0  0  0
 44 87  1  0  0  0  0
 45 46  1  0  0  0  0
 45 88  1  0  0  0  0
 45 89  1  0  0  0  0
 46 90  1  0  0  0  0
 46 91  1  0  0  0  0
 48 92  1  0  0  0  0
 48 93  1  0  0  0  0
M  CHG  2  16   1  37   1
M  END
