CatS_221:1_D
 OpenBabel12041818463D

 86 90  0  0  1  0  0  0  0  0999 V2000
   44.9897   -1.9680   43.8307 C   0  0  0  0  0  0  0  0  0  0  0  0
   44.2708   -3.5920   44.2106 S   0  0  0  0  0  0  0  0  0  0  0  0
   45.1501   -4.2691   45.1065 O   0  0  0  0  0  0  0  0  0  0  0  0
   44.0479   -4.3022   42.9963 O   0  0  0  0  0  0  0  0  0  0  0  0
   42.8306   -3.3671   44.9608 N   0  0  0  0  0  0  0  0  0  0  0  0
   42.7771   -3.7361   46.3923 C   0  0  0  0  0  0  0  0  0  0  0  0
   42.7329   -5.2714   46.5812 C   0  0  0  0  0  0  0  0  0  0  0  0
   41.7222   -5.9114   45.6415 C   0  0  0  0  0  0  0  0  0  0  0  0
   41.1914   -5.2421   44.6147 C   0  0  0  0  0  0  0  0  0  0  0  0
   40.3181   -6.1840   44.0200 C   0  0  0  0  0  0  0  0  0  0  0  0
   40.3964   -7.3096   44.7000 N   0  0  0  0  0  0  0  0  0  0  0  0
   41.2656   -7.1864   45.7283 N   0  0  0  0  0  0  0  0  0  0  0  0
   41.6101   -8.2622   46.6668 C   0  0  0  0  0  0  0  0  0  0  0  0
   40.4733   -9.2924   46.8112 C   0  0  2  0  0  0  0  0  0  0  0  0
   40.4946  -10.2846   45.6261 C   0  0  0  0  0  0  0  0  0  0  0  0
   39.4598  -11.3878   45.6759 N   0  3  0  0  0  0  0  0  0  0  0  0
   39.9659  -12.7083   46.2190 C   0  0  0  0  0  0  0  0  0  0  0  0
   40.6798  -13.5986   45.1777 C   0  0  0  0  0  0  0  0  0  0  0  0
   39.6868  -14.5671   44.5033 C   0  0  0  0  0  0  0  0  0  0  0  0
   38.7400  -13.8728   43.5037 C   0  0  0  0  0  0  0  0  0  0  0  0
   37.8803  -12.7509   44.1276 C   0  0  0  0  0  0  0  0  0  0  0  0
   38.7015  -11.4624   44.3672 C   0  0  0  0  0  0  0  0  0  0  0  0
   39.2171   -8.5984   46.8310 O   0  0  0  0  0  0  0  0  0  0  0  0
   39.4506   -6.0307   42.8637 C   0  0  0  0  0  0  0  0  0  0  0  0
   38.4539   -5.0711   42.8775 C   0  0  0  0  0  0  0  0  0  0  0  0
   37.6177   -4.9128   41.7971 C   0  0  0  0  0  0  0  0  0  0  0  0
   37.7448   -5.6944   40.6664 C   0  0  0  0  0  0  0  0  0  0  0  0
   38.7506   -6.6524   40.6525 C   0  0  0  0  0  0  0  0  0  0  0  0
   39.5900   -6.8133   41.7329 C   0  0  0  0  0  0  0  0  0  0  0  0
   39.0043   -7.7370   39.2382 S   0  0  0  0  0  0  0  0  0  0  0  0
   40.6640   -7.3798   38.5920 C   0  0  0  0  0  0  0  0  0  0  0  0
   41.5102   -8.6293   38.2693 C   0  0  0  0  0  0  0  0  0  0  0  0
   41.9788   -8.7041   36.8385 N   0  3  2  0  0  0  0  0  0  0  0  0
   42.4352  -10.0641   36.3945 C   0  0  0  0  0  0  0  0  0  0  0  0
   43.2666   -9.7475   35.1444 C   0  0  0  0  0  0  0  0  0  0  0  0
   43.9458   -8.4034   35.4611 C   0  0  1  0  0  0  0  0  0  0  0  0
   43.0541   -7.7056   36.5090 C   0  0  0  0  0  0  0  0  0  0  0  0
   45.2034   -8.6418   36.0073 F   0  0  0  0  0  0  0  0  0  0  0  0
   36.7486   -5.4403   39.5331 C   0  0  0  0  0  0  0  0  0  0  0  0
   37.3736   -4.9529   38.3903 F   0  0  0  0  0  0  0  0  0  0  0  0
   35.7538   -4.5208   39.8576 F   0  0  0  0  0  0  0  0  0  0  0  0
   36.1070   -6.6227   39.1807 F   0  0  0  0  0  0  0  0  0  0  0  0
   41.5621   -3.7921   44.3153 C   0  0  0  0  0  0  0  0  0  0  0  0
   40.5975   -9.8046   47.6611 H   0  0  0  0  0  0  0  0  0  0  0  0
   44.0554   -7.8420   34.6408 H   0  0  0  0  0  0  0  0  0  0  0  0
   44.3683   -1.2536   44.1524 H   0  0  0  0  0  0  0  0  0  0  0  0
   45.8747   -1.8752   44.2870 H   0  0  0  0  0  0  0  0  0  0  0  0
   45.1220   -1.8810   42.8433 H   0  0  0  0  0  0  0  0  0  0  0  0
   41.9599   -3.3319   46.8032 H   0  0  0  0  0  0  0  0  0  0  0  0
   43.6038   -3.3904   46.8363 H   0  0  0  0  0  0  0  0  0  0  0  0
   42.4801   -5.4783   47.5263 H   0  0  0  0  0  0  0  0  0  0  0  0
   43.6376   -5.6425   46.3720 H   0  0  0  0  0  0  0  0  0  0  0  0
   41.8011   -7.8614   47.5629 H   0  0  0  0  0  0  0  0  0  0  0  0
   42.4121   -8.7391   46.3069 H   0  0  0  0  0  0  0  0  0  0  0  0
   41.3993  -10.7096   45.5956 H   0  0  0  0  0  0  0  0  0  0  0  0
   40.2759   -9.7438   44.8139 H   0  0  0  0  0  0  0  0  0  0  0  0
   38.8521  -11.1103   46.2967 H   0  0  0  0  0  0  0  0  0  0  0  0
   39.1863  -13.2161   46.5856 H   0  0  0  0  0  0  0  0  0  0  0  0
   40.6478  -12.4861   46.9160 H   0  0  0  0  0  0  0  0  0  0  0  0
   41.3966  -14.1263   45.6333 H   0  0  0  0  0  0  0  0  0  0  0  0
   41.0755  -13.0092   44.4734 H   0  0  0  0  0  0  0  0  0  0  0  0
   39.1361  -15.0048   45.2140 H   0  0  0  0  0  0  0  0  0  0  0  0
   40.2265  -15.2308   43.9855 H   0  0  0  0  0  0  0  0  0  0  0  0
   38.1283  -14.5627   43.1166 H   0  0  0  0  0  0  0  0  0  0  0  0
   39.3174  -13.4413   42.8105 H   0  0  0  0  0  0  0  0  0  0  0  0
   37.5131  -13.0706   45.0011 H   0  0  0  0  0  0  0  0  0  0  0  0
   37.1429  -12.5331   43.4882 H   0  0  0  0  0  0  0  0  0  0  0  0
   39.3645  -11.3773   43.6234 H   0  0  0  0  0  0  0  0  0  0  0  0
   38.0307  -10.7216   44.4037 H   0  0  0  0  0  0  0  0  0  0  0  0
   38.6980   -8.7564   45.9838 H   0  0  0  0  0  0  0  0  0  0  0  0
   38.3405   -4.4868   43.6810 H   0  0  0  0  0  0  0  0  0  0  0  0
   36.9014   -4.2158   41.8314 H   0  0  0  0  0  0  0  0  0  0  0  0
   40.3103   -7.5061   41.6986 H   0  0  0  0  0  0  0  0  0  0  0  0
   41.1544   -6.8350   39.2722 H   0  0  0  0  0  0  0  0  0  0  0  0
   40.5329   -6.8966   37.7263 H   0  0  0  0  0  0  0  0  0  0  0  0
   40.9605   -9.4414   38.4650 H   0  0  0  0  0  0  0  0  0  0  0  0
   42.3316   -8.5749   38.8373 H   0  0  0  0  0  0  0  0  0  0  0  0
   41.2596   -8.4959   36.3176 H   0  0  0  0  0  0  0  0  0  0  0  0
   41.6579  -10.6535   36.1747 H   0  0  0  0  0  0  0  0  0  0  0  0
   42.9471  -10.5601   37.0960 H   0  0  0  0  0  0  0  0  0  0  0  0
   42.6796   -9.6684   34.3387 H   0  0  0  0  0  0  0  0  0  0  0  0
   43.9295  -10.4670   34.9373 H   0  0  0  0  0  0  0  0  0  0  0  0
   43.5830   -7.4749   37.3257 H   0  0  0  0  0  0  0  0  0  0  0  0
   42.6743   -6.8475   36.1635 H   0  0  0  0  0  0  0  0  0  0  0  0
   41.6554   -3.6832   43.3256 H   0  0  0  0  0  0  0  0  0  0  0  0
   40.8329   -3.2176   44.6869 H   0  0  0  0  0  0  0  0  0  0  0  0
  1  2  1  0  0  0  0
  1 46  1  0  0  0  0
  1 47  1  0  0  0  0
  1 48  1  0  0  0  0
  2  3  2  0  0  0  0
  2  4  2  0  0  0  0
  2  5  1  0  0  0  0
  5  6  1  0  0  0  0
  5 43  1  0  0  0  0
  6  7  1  0  0  0  0
  6 49  1  0  0  0  0
  6 50  1  0  0  0  0
  7  8  1  0  0  0  0
  7 51  1  0  0  0  0
  7 52  1  0  0  0  0
  8  9  2  0  0  0  0
  8 12  1  0  0  0  0
  9 10  1  0  0  0  0
  9 43  1  0  0  0  0
 10 11  2  0  0  0  0
 10 24  1  0  0  0  0
 11 12  1  0  0  0  0
 12 13  1  0  0  0  0
 13 14  1  0  0  0  0
 13 53  1  0  0  0  0
 13 54  1  0  0  0  0
 14 15  1  0  0  0  0
 14 23  1  0  0  0  0
 14 44  1  1  0  0  0
 15 16  1  0  0  0  0
 15 55  1  0  0  0  0
 15 56  1  0  0  0  0
 16 17  1  0  0  0  0
 16 22  1  0  0  0  0
 16 57  1  0  0  0  0
 17 18  1  0  0  0  0
 17 58  1  0  0  0  0
 17 59  1  0  0  0  0
 18 19  1  0  0  0  0
 18 60  1  0  0  0  0
 18 61  1  0  0  0  0
 19 20  1  0  0  0  0
 19 62  1  0  0  0  0
 19 63  1  0  0  0  0
 20 21  1  0  0  0  0
 20 64  1  0  0  0  0
 20 65  1  0  0  0  0
 21 22  1  0  0  0  0
 21 66  1  0  0  0  0
 21 67  1  0  0  0  0
 22 68  1  0  0  0  0
 22 69  1  0  0  0  0
 23 70  1  0  0  0  0
 24 25  2  0  0  0  0
 24 29  1  0  0  0  0
 25 26  1  0  0  0  0
 25 71  1  0  0  0  0
 26 27  2  0  0  0  0
 26 72  1  0  0  0  0
 27 28  1  0  0  0  0
 27 39  1  0  0  0  0
 28 29  2  0  0  0  0
 28 30  1  0  0  0  0
 29 73  1  0  0  0  0
 30 31  1  0  0  0  0
 31 32  1  0  0  0  0
 31 74  1  0  0  0  0
 31 75  1  0  0  0  0
 32 33  1  0  0  0  0
 32 76  1  0  0  0  0
 32 77  1  0  0  0  0
 33 34  1  0  0  0  0
 33 37  1  0  0  0  0
 33 78  1  6  0  0  0
 34 35  1  0  0  0  0
 34 79  1  0  0  0  0
 34 80  1  0  0  0  0
 35 36  1  0  0  0  0
 35 81  1  0  0  0  0
 35 82  1  0  0  0  0
 36 37  1  0  0  0  0
 36 38  1  0  0  0  0
 36 45  1  6  0  0  0
 37 83  1  0  0  0  0
 37 84  1  0  0  0  0
 39 40  1  0  0  0  0
 39 41  1  0  0  0  0
 39 42  1  0  0  0  0
 43 85  1  0  0  0  0
 43 86  1  0  0  0  0
M  CHG  2  16   1  33   1
M  END
