CatS_162:1_D
 OpenBabel12041818463D

100105  0  0  1  0  0  0  0  0999 V2000
   43.8512   -5.4509   51.9623 C   0  0  0  0  0  0  0  0  0  0  0  0
   43.0655   -4.6905   50.9324 N   0  3  1  0  0  0  0  0  0  0  0  0
   43.6676   -4.8111   49.5589 C   0  0  0  0  0  0  0  0  0  0  0  0
   43.4899   -6.2402   49.0070 C   0  0  0  0  0  0  0  0  0  0  0  0
   42.0972   -6.7151   49.1470 N   0  0  0  0  0  0  0  0  0  0  0  0
   41.4293   -6.5000   50.4433 C   0  0  0  0  0  0  0  0  0  0  0  0
   41.6071   -5.0566   50.9502 C   0  0  0  0  0  0  0  0  0  0  0  0
   41.4421   -7.3903   48.1660 C   0  0  0  0  0  0  0  0  0  0  0  0
   40.5440   -8.1873   48.4667 O   0  0  0  0  0  0  0  0  0  0  0  0
   41.7476   -7.1869   46.8566 N   0  0  0  0  0  0  0  0  0  0  0  0
   41.3268   -8.1816   45.8475 C   0  0  0  0  0  0  0  0  0  0  0  0
   40.3308   -7.5600   44.8428 C   0  0  0  0  0  0  0  0  0  0  0  0
   40.8072   -6.1945   44.3750 C   0  0  0  0  0  0  0  0  0  0  0  0
   41.7104   -5.4784   45.0536 C   0  0  0  0  0  0  0  0  0  0  0  0
   41.8563   -4.3058   44.2768 C   0  0  0  0  0  0  0  0  0  0  0  0
   41.0548   -4.3974   43.2391 N   0  0  0  0  0  0  0  0  0  0  0  0
   40.3793   -5.5664   43.2504 N   0  0  0  0  0  0  0  0  0  0  0  0
   39.4529   -6.0111   42.1987 C   0  0  0  0  0  0  0  0  0  0  0  0
   38.1776   -5.1468   42.1279 C   0  0  2  0  0  0  0  0  0  0  0  0
   37.5525   -5.1211   40.7161 C   0  0  0  0  0  0  0  0  0  0  0  0
   36.2352   -5.8485   40.5894 N   0  3  0  0  0  0  0  0  0  0  0  0
   36.4133   -7.3405   40.4471 C   0  0  0  0  0  0  0  0  0  0  0  0
   36.9596   -7.7095   39.0528 C   0  0  0  0  0  0  0  0  0  0  0  0
   36.0194   -7.1626   37.9624 C   0  0  0  0  0  0  0  0  0  0  0  0
   35.9013   -5.6331   38.0976 C   0  0  0  0  0  0  0  0  0  0  0  0
   35.3675   -5.2677   39.4979 C   0  0  0  0  0  0  0  0  0  0  0  0
   38.4835   -3.7973   42.5094 O   0  0  0  0  0  0  0  0  0  0  0  0
   42.7255   -3.1610   44.4875 C   0  0  0  0  0  0  0  0  0  0  0  0
   42.4027   -2.2583   45.4824 C   0  0  0  0  0  0  0  0  0  0  0  0
   43.1857   -1.1527   45.7072 C   0  0  0  0  0  0  0  0  0  0  0  0
   44.3125   -0.9026   44.9512 C   0  0  0  0  0  0  0  0  0  0  0  0
   44.6427   -1.8168   43.9584 C   0  0  0  0  0  0  0  0  0  0  0  0
   43.8625   -2.9296   43.7334 C   0  0  0  0  0  0  0  0  0  0  0  0
   46.0843   -1.6030   42.9035 S   0  0  0  0  0  0  0  0  0  0  0  0
   45.5946   -0.4711   41.5757 C   0  0  0  0  0  0  0  0  0  0  0  0
   46.8324    0.0105   40.7890 C   0  0  0  0  0  0  0  0  0  0  0  0
   47.3841   -0.9943   39.8069 N   0  3  1  0  0  0  0  0  0  0  0  0
   48.6642   -1.6187   40.3098 C   0  0  0  0  0  0  0  0  0  0  0  0
   49.2549   -2.6047   39.2822 C   0  0  0  0  0  0  0  0  0  0  0  0
   48.2114   -3.6836   38.9404 C   0  0  1  0  0  0  0  0  0  0  0  0
   46.9514   -3.0139   38.3616 C   0  0  0  0  0  0  0  0  0  0  0  0
   46.3641   -2.0289   39.3928 C   0  0  0  0  0  0  0  0  0  0  0  0
   48.7439   -4.5594   38.0017 F   0  0  0  0  0  0  0  0  0  0  0  0
   45.0847    0.3672   45.3068 C   0  0  0  0  0  0  0  0  0  0  0  0
   46.3911    0.1009   45.7011 F   0  0  0  0  0  0  0  0  0  0  0  0
   45.1745    1.2681   44.2491 F   0  0  0  0  0  0  0  0  0  0  0  0
   44.4573    1.0357   46.3506 F   0  0  0  0  0  0  0  0  0  0  0  0
   42.3671   -5.9377   46.3491 C   0  0  0  0  0  0  0  0  0  0  0  0
   37.5166   -5.5592   42.7547 H   0  0  0  0  0  0  0  0  0  0  0  0
   44.2228   -4.8059   52.6299 H   0  0  0  0  0  0  0  0  0  0  0  0
   43.2555   -6.1080   52.4243 H   0  0  0  0  0  0  0  0  0  0  0  0
   44.5984   -5.9454   51.5182 H   0  0  0  0  0  0  0  0  0  0  0  0
   43.1165   -3.8102   51.1662 H   0  0  0  0  0  0  0  0  0  0  0  0
   44.6426   -4.5941   49.6065 H   0  0  0  0  0  0  0  0  0  0  0  0
   43.2012   -4.1721   48.9472 H   0  0  0  0  0  0  0  0  0  0  0  0
   44.0970   -6.8588   49.5056 H   0  0  0  0  0  0  0  0  0  0  0  0
   43.7151   -6.2265   48.0327 H   0  0  0  0  0  0  0  0  0  0  0  0
   41.8155   -7.1312   51.1159 H   0  0  0  0  0  0  0  0  0  0  0  0
   40.4509   -6.6641   50.3178 H   0  0  0  0  0  0  0  0  0  0  0  0
   41.0979   -4.4292   50.3609 H   0  0  0  0  0  0  0  0  0  0  0  0
   41.2599   -4.9897   51.8856 H   0  0  0  0  0  0  0  0  0  0  0  0
   40.8909   -8.9542   46.3091 H   0  0  0  0  0  0  0  0  0  0  0  0
   42.1352   -8.4890   45.3455 H   0  0  0  0  0  0  0  0  0  0  0  0
   39.4378   -7.4642   45.2825 H   0  0  0  0  0  0  0  0  0  0  0  0
   40.2647   -8.1620   44.0471 H   0  0  0  0  0  0  0  0  0  0  0  0
   39.1908   -6.9589   42.3804 H   0  0  0  0  0  0  0  0  0  0  0  0
   39.9257   -5.9237   41.3218 H   0  0  0  0  0  0  0  0  0  0  0  0
   38.2023   -5.5373   40.0799 H   0  0  0  0  0  0  0  0  0  0  0  0
   37.3614   -4.1610   40.5122 H   0  0  0  0  0  0  0  0  0  0  0  0
   35.7807   -5.7169   41.3680 H   0  0  0  0  0  0  0  0  0  0  0  0
   35.5303   -7.7899   40.5830 H   0  0  0  0  0  0  0  0  0  0  0  0
   37.0726   -7.6463   41.1339 H   0  0  0  0  0  0  0  0  0  0  0  0
   37.0227   -8.7043   38.9720 H   0  0  0  0  0  0  0  0  0  0  0  0
   37.8674   -7.3064   38.9368 H   0  0  0  0  0  0  0  0  0  0  0  0
   35.1154   -7.5784   38.0618 H   0  0  0  0  0  0  0  0  0  0  0  0
   36.3919   -7.3863   37.0617 H   0  0  0  0  0  0  0  0  0  0  0  0
   35.2751   -5.2847   37.4002 H   0  0  0  0  0  0  0  0  0  0  0  0
   36.8044   -5.2218   37.9740 H   0  0  0  0  0  0  0  0  0  0  0  0
   35.3477   -4.2723   39.5914 H   0  0  0  0  0  0  0  0  0  0  0  0
   34.4480   -5.6496   39.5914 H   0  0  0  0  0  0  0  0  0  0  0  0
   38.6344   -3.7197   43.5002 H   0  0  0  0  0  0  0  0  0  0  0  0
   41.5902   -2.4116   46.0448 H   0  0  0  0  0  0  0  0  0  0  0  0
   42.9337   -0.5148   46.4349 H   0  0  0  0  0  0  0  0  0  0  0  0
   44.1208   -3.5777   43.0168 H   0  0  0  0  0  0  0  0  0  0  0  0
   45.1255    0.3186   41.9712 H   0  0  0  0  0  0  0  0  0  0  0  0
   44.9836   -0.9545   40.9489 H   0  0  0  0  0  0  0  0  0  0  0  0
   47.5521    0.2363   41.4454 H   0  0  0  0  0  0  0  0  0  0  0  0
   46.5354    0.7983   40.2491 H   0  0  0  0  0  0  0  0  0  0  0  0
   47.6063   -0.5326   39.0534 H   0  0  0  0  0  0  0  0  0  0  0  0
   48.4760   -2.1075   41.1617 H   0  0  0  0  0  0  0  0  0  0  0  0
   49.3307   -0.8886   40.4606 H   0  0  0  0  0  0  0  0  0  0  0  0
   50.0710   -3.0372   39.6653 H   0  0  0  0  0  0  0  0  0  0  0  0
   49.5011   -2.1080   38.4500 H   0  0  0  0  0  0  0  0  0  0  0  0
   47.9690   -4.1887   39.7688 H   0  0  0  0  0  0  0  0  0  0  0  0
   46.2718   -3.7142   38.1431 H   0  0  0  0  0  0  0  0  0  0  0  0
   47.1950   -2.5141   37.5304 H   0  0  0  0  0  0  0  0  0  0  0  0
   45.5734   -1.5665   38.9916 H   0  0  0  0  0  0  0  0  0  0  0  0
   46.0937   -2.5474   40.2039 H   0  0  0  0  0  0  0  0  0  0  0  0
   43.3402   -6.0991   46.1843 H   0  0  0  0  0  0  0  0  0  0  0  0
   42.2402   -5.2220   47.0359 H   0  0  0  0  0  0  0  0  0  0  0  0
  1  2  1  0  0  0  0
  1 50  1  0  0  0  0
  1 51  1  0  0  0  0
  1 52  1  0  0  0  0
  2  3  1  0  0  0  0
  2  7  1  0  0  0  0
  2 53  1  1  0  0  0
  3  4  1  0  0  0  0
  3 54  1  0  0  0  0
  3 55  1  0  0  0  0
  4  5  1  0  0  0  0
  4 56  1  0  0  0  0
  4 57  1  0  0  0  0
  5  6  1  0  0  0  0
  5  8  1  0  0  0  0
  6  7  1  0  0  0  0
  6 58  1  0  0  0  0
  6 59  1  0  0  0  0
  7 60  1  0  0  0  0
  7 61  1  0  0  0  0
  8  9  2  0  0  0  0
  8 10  1  0  0  0  0
 10 11  1  0  0  0  0
 10 48  1  0  0  0  0
 11 12  1  0  0  0  0
 11 62  1  0  0  0  0
 11 63  1  0  0  0  0
 12 13  1  0  0  0  0
 12 64  1  0  0  0  0
 12 65  1  0  0  0  0
 13 14  2  0  0  0  0
 13 17  1  0  0  0  0
 14 15  1  0  0  0  0
 14 48  1  0  0  0  0
 15 16  2  0  0  0  0
 15 28  1  0  0  0  0
 16 17  1  0  0  0  0
 17 18  1  0  0  0  0
 18 19  1  0  0  0  0
 18 66  1  0  0  0  0
 18 67  1  0  0  0  0
 19 20  1  0  0  0  0
 19 27  1  0  0  0  0
 19 49  1  1  0  0  0
 20 21  1  0  0  0  0
 20 68  1  0  0  0  0
 20 69  1  0  0  0  0
 21 22  1  0  0  0  0
 21 26  1  0  0  0  0
 21 70  1  0  0  0  0
 22 23  1  0  0  0  0
 22 71  1  0  0  0  0
 22 72  1  0  0  0  0
 23 24  1  0  0  0  0
 23 73  1  0  0  0  0
 23 74  1  0  0  0  0
 24 25  1  0  0  0  0
 24 75  1  0  0  0  0
 24 76  1  0  0  0  0
 25 26  1  0  0  0  0
 25 77  1  0  0  0  0
 25 78  1  0  0  0  0
 26 79  1  0  0  0  0
 26 80  1  0  0  0  0
 27 81  1  0  0  0  0
 28 29  2  0  0  0  0
 28 33  1  0  0  0  0
 29 30  1  0  0  0  0
 29 82  1  0  0  0  0
 30 31  2  0  0  0  0
 30 83  1  0  0  0  0
 31 32  1  0  0  0  0
 31 44  1  0  0  0  0
 32 33  2  0  0  0  0
 32 34  1  0  0  0  0
 33 84  1  0  0  0  0
 34 35  1  0  0  0  0
 35 36  1  0  0  0  0
 35 85  1  0  0  0  0
 35 86  1  0  0  0  0
 36 37  1  0  0  0  0
 36 87  1  0  0  0  0
 36 88  1  0  0  0  0
 37 38  1  0  0  0  0
 37 42  1  0  0  0  0
 37 89  1  6  0  0  0
 38 39  1  0  0  0  0
 38 90  1  0  0  0  0
 38 91  1  0  0  0  0
 39 40  1  0  0  0  0
 39 92  1  0  0  0  0
 39 93  1  0  0  0  0
 40 41  1  0  0  0  0
 40 43  1  0  0  0  0
 40 94  1  1  0  0  0
 41 42  1  0  0  0  0
 41 95  1  0  0  0  0
 41 96  1  0  0  0  0
 42 97  1  0  0  0  0
 42 98  1  0  0  0  0
 44 45  1  0  0  0  0
 44 46  1  0  0  0  0
 44 47  1  0  0  0  0
 48 99  1  0  0  0  0
 48100  1  0  0  0  0
M  CHG  3   2   1  21   1  37   1
M  END
