CatS_152:1_D
 OpenBabel12041818463D

 90 94  0  0  1  0  0  0  0  0999 V2000
   50.1477   -4.1551   37.6465 C   0  0  0  0  0  0  0  0  0  0  0  0
   49.8591   -2.8830   38.4682 C   0  0  2  0  0  0  0  0  0  0  0  0
   49.9468   -3.1696   39.9837 C   0  0  0  0  0  0  0  0  0  0  0  0
   48.7294   -3.9449   40.5326 C   0  0  0  0  0  0  0  0  0  0  0  0
   47.4285   -3.2690   40.1735 N   0  3  2  0  0  0  0  0  0  0  0  0
   47.2872   -3.0700   38.6851 C   0  0  0  0  0  0  0  0  0  0  0  0
   48.4822   -2.2803   38.1031 C   0  0  0  0  0  0  0  0  0  0  0  0
   47.2298   -1.9927   40.9549 C   0  0  0  0  0  0  0  0  0  0  0  0
   45.8851   -1.8709   41.7080 C   0  0  1  0  0  0  0  0  0  0  0  0
   46.0454   -1.5228   43.2053 C   0  0  0  0  0  0  0  0  0  0  0  0
   44.8721   -1.9198   44.0006 N   0  0  0  0  0  0  0  0  0  0  0  0
   44.0805   -1.1969   44.8335 C   0  0  0  0  0  0  0  0  0  0  0  0
   43.0782   -1.9118   45.3487 C   0  0  0  0  0  0  0  0  0  0  0  0
   43.2765   -3.2016   44.8101 C   0  0  0  0  0  0  0  0  0  0  0  0
   44.3342   -3.1619   44.0250 N   0  0  0  0  0  0  0  0  0  0  0  0
   42.5125   -4.4173   45.0335 C   0  0  0  0  0  0  0  0  0  0  0  0
   42.9036   -5.2897   46.0330 C   0  0  0  0  0  0  0  0  0  0  0  0
   42.2003   -6.4489   46.2629 C   0  0  0  0  0  0  0  0  0  0  0  0
   41.0853   -6.7827   45.5195 C   0  0  0  0  0  0  0  0  0  0  0  0
   40.6889   -5.8963   44.5237 C   0  0  0  0  0  0  0  0  0  0  0  0
   41.3936   -4.7364   44.2879 C   0  0  0  0  0  0  0  0  0  0  0  0
   39.2810   -6.2007   43.4442 S   0  0  0  0  0  0  0  0  0  0  0  0
   39.8064   -6.7401   41.7950 C   0  0  0  0  0  0  0  0  0  0  0  0
   38.5999   -7.3948   41.0836 C   0  0  0  0  0  0  0  0  0  0  0  0
   38.2627   -6.8049   39.7374 N   0  3  1  0  0  0  0  0  0  0  0  0
   37.0123   -7.3928   39.1259 C   0  0  0  0  0  0  0  0  0  0  0  0
   35.7575   -6.9411   39.8998 C   0  0  0  0  0  0  0  0  0  0  0  0
   35.6608   -5.4048   39.8738 C   0  0  0  0  0  0  0  0  0  0  0  0
   36.9217   -4.7849   40.5054 C   0  0  0  0  0  0  0  0  0  0  0  0
   38.1997   -5.2968   39.8074 C   0  0  0  0  0  0  0  0  0  0  0  0
   36.9704   -5.1143   41.8554 F   0  0  0  0  0  0  0  0  0  0  0  0
   36.8553   -3.3979   40.4271 F   0  0  0  0  0  0  0  0  0  0  0  0
   40.4196   -8.1061   45.9010 C   0  0  0  0  0  0  0  0  0  0  0  0
   39.0500   -8.1160   45.6501 F   0  0  0  0  0  0  0  0  0  0  0  0
   40.9586   -9.1600   45.1731 F   0  0  0  0  0  0  0  0  0  0  0  0
   40.5654   -8.4076   47.2493 F   0  0  0  0  0  0  0  0  0  0  0  0
   42.0423   -1.3211   46.2977 C   0  0  0  0  0  0  0  0  0  0  0  0
   42.1215    0.1489   46.4862 N   0  0  0  0  0  0  0  0  0  0  0  0
   43.5437    0.5606   46.5342 C   0  0  0  0  0  0  0  0  0  0  0  0
   44.2729    0.2624   45.2009 C   0  0  0  0  0  0  0  0  0  0  0  0
   41.1593    0.7607   47.6555 S   0  0  0  0  0  0  0  0  0  0  0  0
   41.3860    2.1687   47.6986 O   0  0  0  0  0  0  0  0  0  0  0  0
   39.8304    0.3150   47.3917 O   0  0  0  0  0  0  0  0  0  0  0  0
   41.6663    0.0575   49.2468 C   0  0  0  0  0  0  0  0  0  0  0  0
   45.1084   -0.8553   41.0566 O   0  0  0  0  0  0  0  0  0  0  0  0
   50.8732   -1.9210   38.1421 O   0  0  0  0  0  0  0  0  0  0  0  0
   45.4337   -2.7628   41.6791 H   0  0  0  0  0  0  0  0  0  0  0  0
   50.9644   -4.0046   37.0895 H   0  0  0  0  0  0  0  0  0  0  0  0
   50.2979   -4.9284   38.2626 H   0  0  0  0  0  0  0  0  0  0  0  0
   49.3677   -4.3576   37.0544 H   0  0  0  0  0  0  0  0  0  0  0  0
   50.0159   -2.2980   40.4691 H   0  0  0  0  0  0  0  0  0  0  0  0
   50.7516   -3.7451   40.1290 H   0  0  0  0  0  0  0  0  0  0  0  0
   48.8029   -4.0037   41.5281 H   0  0  0  0  0  0  0  0  0  0  0  0
   48.7294   -4.8564   40.1212 H   0  0  0  0  0  0  0  0  0  0  0  0
   46.7703   -3.8456   40.4276 H   0  0  0  0  0  0  0  0  0  0  0  0
   46.4422   -2.5677   38.5017 H   0  0  0  0  0  0  0  0  0  0  0  0
   47.2652   -3.9697   38.2492 H   0  0  0  0  0  0  0  0  0  0  0  0
   48.3974   -2.2625   37.1068 H   0  0  0  0  0  0  0  0  0  0  0  0
   48.4484   -1.3637   38.5015 H   0  0  0  0  0  0  0  0  0  0  0  0
   47.2978   -1.2261   40.3164 H   0  0  0  0  0  0  0  0  0  0  0  0
   47.9375   -1.9927   41.6614 H   0  0  0  0  0  0  0  0  0  0  0  0
   46.1785   -0.5357   43.2948 H   0  0  0  0  0  0  0  0  0  0  0  0
   46.8345   -2.0286   43.5537 H   0  0  0  0  0  0  0  0  0  0  0  0
   43.7041   -5.0759   46.5929 H   0  0  0  0  0  0  0  0  0  0  0  0
   42.5045   -7.0669   46.9879 H   0  0  0  0  0  0  0  0  0  0  0  0
   41.0905   -4.1152   43.5652 H   0  0  0  0  0  0  0  0  0  0  0  0
   40.5523   -7.4012   41.8765 H   0  0  0  0  0  0  0  0  0  0  0  0
   40.1297   -5.9557   41.2656 H   0  0  0  0  0  0  0  0  0  0  0  0
   37.7997   -7.3016   41.6760 H   0  0  0  0  0  0  0  0  0  0  0  0
   38.8553   -8.3470   40.9159 H   0  0  0  0  0  0  0  0  0  0  0  0
   38.9522   -7.0107   39.1787 H   0  0  0  0  0  0  0  0  0  0  0  0
   37.0727   -8.3907   39.1488 H   0  0  0  0  0  0  0  0  0  0  0  0
   36.9369   -7.0720   38.1818 H   0  0  0  0  0  0  0  0  0  0  0  0
   35.8166   -7.2575   40.8466 H   0  0  0  0  0  0  0  0  0  0  0  0
   34.9435   -7.3314   39.4698 H   0  0  0  0  0  0  0  0  0  0  0  0
   34.8534   -5.1139   40.3870 H   0  0  0  0  0  0  0  0  0  0  0  0
   35.5864   -5.0975   38.9251 H   0  0  0  0  0  0  0  0  0  0  0  0
   38.2276   -4.9307   38.8773 H   0  0  0  0  0  0  0  0  0  0  0  0
   38.9819   -4.9871   40.3481 H   0  0  0  0  0  0  0  0  0  0  0  0
   42.1557   -1.7563   47.1909 H   0  0  0  0  0  0  0  0  0  0  0  0
   41.1514   -1.4976   45.8793 H   0  0  0  0  0  0  0  0  0  0  0  0
   44.0007    0.0665   47.2737 H   0  0  0  0  0  0  0  0  0  0  0  0
   43.5766    1.5476   46.6915 H   0  0  0  0  0  0  0  0  0  0  0  0
   43.8989    0.8419   44.4767 H   0  0  0  0  0  0  0  0  0  0  0  0
   45.2488    0.4531   45.3066 H   0  0  0  0  0  0  0  0  0  0  0  0
   40.9171   -0.4950   49.6121 H   0  0  0  0  0  0  0  0  0  0  0  0
   42.4763   -0.5150   49.1205 H   0  0  0  0  0  0  0  0  0  0  0  0
   41.8852    0.7946   49.8862 H   0  0  0  0  0  0  0  0  0  0  0  0
   44.3277   -0.5696   41.6221 H   0  0  0  0  0  0  0  0  0  0  0  0
   50.4896   -1.1426   37.6331 H   0  0  0  0  0  0  0  0  0  0  0  0
  1 48  1  0  0  0  0
  1 49  1  0  0  0  0
  1 50  1  0  0  0  0
  2  1  1  6  0  0  0
  2  3  1  0  0  0  0
  2  7  1  0  0  0  0
  2 46  1  0  0  0  0
  3  4  1  0  0  0  0
  3 51  1  0  0  0  0
  3 52  1  0  0  0  0
  4  5  1  0  0  0  0
  4 53  1  0  0  0  0
  4 54  1  0  0  0  0
  5  6  1  0  0  0  0
  5  8  1  0  0  0  0
  5 55  1  1  0  0  0
  6  7  1  0  0  0  0
  6 56  1  0  0  0  0
  6 57  1  0  0  0  0
  7 58  1  0  0  0  0
  7 59  1  0  0  0  0
  8  9  1  0  0  0  0
  8 60  1  0  0  0  0
  8 61  1  0  0  0  0
  9 10  1  0  0  0  0
  9 45  1  0  0  0  0
  9 47  1  6  0  0  0
 10 11  1  0  0  0  0
 10 62  1  0  0  0  0
 10 63  1  0  0  0  0
 11 12  1  0  0  0  0
 11 15  1  0  0  0  0
 12 13  2  0  0  0  0
 12 40  1  0  0  0  0
 13 14  1  0  0  0  0
 13 37  1  0  0  0  0
 14 15  2  0  0  0  0
 14 16  1  0  0  0  0
 16 17  2  0  0  0  0
 16 21  1  0  0  0  0
 17 18  1  0  0  0  0
 17 64  1  0  0  0  0
 18 19  2  0  0  0  0
 18 65  1  0  0  0  0
 19 20  1  0  0  0  0
 19 33  1  0  0  0  0
 20 21  2  0  0  0  0
 20 22  1  0  0  0  0
 21 66  1  0  0  0  0
 22 23  1  0  0  0  0
 23 24  1  0  0  0  0
 23 67  1  0  0  0  0
 23 68  1  0  0  0  0
 24 25  1  0  0  0  0
 24 69  1  0  0  0  0
 24 70  1  0  0  0  0
 25 26  1  0  0  0  0
 25 30  1  0  0  0  0
 25 71  1  6  0  0  0
 26 27  1  0  0  0  0
 26 72  1  0  0  0  0
 26 73  1  0  0  0  0
 27 28  1  0  0  0  0
 27 74  1  0  0  0  0
 27 75  1  0  0  0  0
 28 29  1  0  0  0  0
 28 76  1  0  0  0  0
 28 77  1  0  0  0  0
 29 30  1  0  0  0  0
 29 31  1  0  0  0  0
 29 32  1  0  0  0  0
 30 78  1  0  0  0  0
 30 79  1  0  0  0  0
 33 34  1  0  0  0  0
 33 35  1  0  0  0  0
 33 36  1  0  0  0  0
 37 38  1  0  0  0  0
 37 80  1  0  0  0  0
 37 81  1  0  0  0  0
 38 39  1  0  0  0  0
 38 41  1  0  0  0  0
 39 40  1  0  0  0  0
 39 82  1  0  0  0  0
 39 83  1  0  0  0  0
 40 84  1  0  0  0  0
 40 85  1  0  0  0  0
 41 42  2  0  0  0  0
 41 43  2  0  0  0  0
 41 44  1  0  0  0  0
 44 86  1  0  0  0  0
 44 87  1  0  0  0  0
 44 88  1  0  0  0  0
 45 89  1  0  0  0  0
 46 90  1  0  0  0  0
M  CHG  2   5   1  25   1
M  END
