CatS_91:1_D
 OpenBabel12041818463D

 91 96  0  0  1  0  0  0  0  0999 V2000
   50.3199   -2.5173   38.8757 C   0  0  0  0  0  0  0  0  0  0  0  0
   50.8133   -2.3549   40.1585 C   0  0  0  0  0  0  0  0  0  0  0  0
   49.9649   -2.0515   41.1914 C   0  0  0  0  0  0  0  0  0  0  0  0
   48.6023   -1.8971   40.9764 C   0  0  0  0  0  0  0  0  0  0  0  0
   48.1060   -2.0728   39.6754 C   0  0  0  0  0  0  0  0  0  0  0  0
   48.9820   -2.3799   38.6356 C   0  0  0  0  0  0  0  0  0  0  0  0
   46.7042   -1.9711   39.3536 C   0  0  0  0  0  0  0  0  0  0  0  0
   45.5994   -1.8910   39.1004 N   0  0  0  0  0  0  0  0  0  0  0  0
   47.7538   -1.5831   42.0424 N   0  0  0  0  0  0  0  0  0  0  0  0
   47.9949   -2.0904   43.4067 C   0  0  0  0  0  0  0  0  0  0  0  0
   46.6392   -2.4800   44.0299 C   0  0  0  0  0  0  0  0  0  0  0  0
   45.6706   -1.3247   43.9855 N   0  3  0  0  0  0  0  0  0  0  0  0
   45.5475   -0.7145   42.6102 C   0  0  0  0  0  0  0  0  0  0  0  0
   46.9319   -0.3593   42.0381 C   0  0  0  0  0  0  0  0  0  0  0  0
   44.3219   -1.6909   44.5545 C   0  0  0  0  0  0  0  0  0  0  0  0
   43.6457   -2.9062   43.8819 C   0  0  1  0  0  0  0  0  0  0  0  0
   42.6458   -3.6147   44.8206 C   0  0  0  0  0  0  0  0  0  0  0  0
   41.7350   -4.6811   44.3537 N   0  0  0  0  0  0  0  0  0  0  0  0
   41.3968   -5.8950   44.8768 C   0  0  0  0  0  0  0  0  0  0  0  0
   40.3468   -6.4540   44.2594 C   0  0  0  0  0  0  0  0  0  0  0  0
   40.0273   -5.5255   43.2406 C   0  0  0  0  0  0  0  0  0  0  0  0
   40.8674   -4.5185   43.3281 N   0  0  0  0  0  0  0  0  0  0  0  0
   38.9941   -5.5851   42.2178 C   0  0  0  0  0  0  0  0  0  0  0  0
   37.8331   -4.8318   42.2885 C   0  0  0  0  0  0  0  0  0  0  0  0
   36.8788   -4.9149   41.3015 C   0  0  0  0  0  0  0  0  0  0  0  0
   37.0391   -5.7483   40.2141 C   0  0  0  0  0  0  0  0  0  0  0  0
   38.2035   -6.5000   40.1441 C   0  0  0  0  0  0  0  0  0  0  0  0
   39.1660   -6.4125   41.1245 C   0  0  0  0  0  0  0  0  0  0  0  0
   38.5010   -7.6478   38.7929 S   0  0  0  0  0  0  0  0  0  0  0  0
   40.2834   -7.7050   38.4853 C   0  0  0  0  0  0  0  0  0  0  0  0
   40.5667   -8.9339   37.5990 C   0  0  0  0  0  0  0  0  0  0  0  0
   41.6466   -8.7034   36.5711 N   0  3  2  0  0  0  0  0  0  0  0  0
   42.4650   -9.9440   36.2971 C   0  0  0  0  0  0  0  0  0  0  0  0
   43.5272   -9.6876   35.2097 C   0  0  0  0  0  0  0  0  0  0  0  0
   44.4332   -8.5185   35.6370 C   0  0  2  0  0  0  0  0  0  0  0  0
   43.5796   -7.2539   35.8456 C   0  0  0  0  0  0  0  0  0  0  0  0
   42.5097   -7.5160   36.9249 C   0  0  0  0  0  0  0  0  0  0  0  0
   45.3772   -8.2804   34.6452 F   0  0  0  0  0  0  0  0  0  0  0  0
   35.9116   -5.7712   39.1824 C   0  0  0  0  0  0  0  0  0  0  0  0
   36.3720   -5.3846   37.9286 F   0  0  0  0  0  0  0  0  0  0  0  0
   35.3269   -7.0249   39.0242 F   0  0  0  0  0  0  0  0  0  0  0  0
   34.8932   -4.8950   39.5405 F   0  0  0  0  0  0  0  0  0  0  0  0
   39.7551   -7.8087   44.6422 C   0  0  0  0  0  0  0  0  0  0  0  0
   40.2475   -8.2355   46.0048 N   0  3  0  0  0  0  0  0  0  0  0  0
   41.7280   -8.0684   46.2120 C   0  0  0  0  0  0  0  0  0  0  0  0
   42.1110   -6.5823   46.0364 C   0  0  0  0  0  0  0  0  0  0  0  0
   43.0062   -2.5266   42.6541 O   0  0  0  0  0  0  0  0  0  0  0  0
   44.3715   -3.5618   43.6737 H   0  0  0  0  0  0  0  0  0  0  0  0
   50.9428   -2.7351   38.1243 H   0  0  0  0  0  0  0  0  0  0  0  0
   51.7925   -2.4593   40.3325 H   0  0  0  0  0  0  0  0  0  0  0  0
   50.3333   -1.9396   42.1143 H   0  0  0  0  0  0  0  0  0  0  0  0
   48.6288   -2.5006   37.7079 H   0  0  0  0  0  0  0  0  0  0  0  0
   48.4320   -1.3811   43.9597 H   0  0  0  0  0  0  0  0  0  0  0  0
   48.5978   -2.8875   43.3744 H   0  0  0  0  0  0  0  0  0  0  0  0
   46.7818   -2.7539   44.9810 H   0  0  0  0  0  0  0  0  0  0  0  0
   46.2532   -3.2375   43.5034 H   0  0  0  0  0  0  0  0  0  0  0  0
   46.0299   -0.6785   44.5176 H   0  0  0  0  0  0  0  0  0  0  0  0
   44.9919    0.1149   42.6674 H   0  0  0  0  0  0  0  0  0  0  0  0
   45.1152   -1.3816   42.0035 H   0  0  0  0  0  0  0  0  0  0  0  0
   46.8378   -0.0149   41.1040 H   0  0  0  0  0  0  0  0  0  0  0  0
   47.3641    0.3515   42.5932 H   0  0  0  0  0  0  0  0  0  0  0  0
   43.7164   -0.9010   44.4571 H   0  0  0  0  0  0  0  0  0  0  0  0
   44.4785   -1.9484   45.5080 H   0  0  0  0  0  0  0  0  0  0  0  0
   42.0635   -2.8961   45.2008 H   0  0  0  0  0  0  0  0  0  0  0  0
   43.2589   -4.1224   45.4259 H   0  0  0  0  0  0  0  0  0  0  0  0
   37.6875   -4.2206   43.0665 H   0  0  0  0  0  0  0  0  0  0  0  0
   36.0506   -4.3590   41.3738 H   0  0  0  0  0  0  0  0  0  0  0  0
   40.0019   -6.9556   41.0443 H   0  0  0  0  0  0  0  0  0  0  0  0
   40.7776   -7.7850   39.3509 H   0  0  0  0  0  0  0  0  0  0  0  0
   40.5871   -6.8683   38.0294 H   0  0  0  0  0  0  0  0  0  0  0  0
   39.7231   -9.1834   37.1236 H   0  0  0  0  0  0  0  0  0  0  0  0
   40.8905   -9.6618   38.2032 H   0  0  0  0  0  0  0  0  0  0  0  0
   41.2274   -8.4895   35.7908 H   0  0  0  0  0  0  0  0  0  0  0  0
   41.8560  -10.6771   35.9943 H   0  0  0  0  0  0  0  0  0  0  0  0
   42.9357  -10.2031   37.1405 H   0  0  0  0  0  0  0  0  0  0  0  0
   43.0746   -9.4630   34.3468 H   0  0  0  0  0  0  0  0  0  0  0  0
   44.0836  -10.5099   35.0891 H   0  0  0  0  0  0  0  0  0  0  0  0
   44.8963   -8.7515   36.4921 H   0  0  0  0  0  0  0  0  0  0  0  0
   43.1333   -7.0076   34.9853 H   0  0  0  0  0  0  0  0  0  0  0  0
   44.1698   -6.5037   36.1437 H   0  0  0  0  0  0  0  0  0  0  0  0
   42.9624   -7.6904   37.7993 H   0  0  0  0  0  0  0  0  0  0  0  0
   41.9228   -6.7086   36.9859 H   0  0  0  0  0  0  0  0  0  0  0  0
   40.0255   -8.4912   43.9631 H   0  0  0  0  0  0  0  0  0  0  0  0
   38.7586   -7.7297   44.6700 H   0  0  0  0  0  0  0  0  0  0  0  0
   39.7943   -7.7872   46.6551 H   0  0  0  0  0  0  0  0  0  0  0  0
   40.0330   -9.1094   46.1477 H   0  0  0  0  0  0  0  0  0  0  0  0
   42.2238   -8.6237   45.5443 H   0  0  0  0  0  0  0  0  0  0  0  0
   41.9697   -8.3656   47.1357 H   0  0  0  0  0  0  0  0  0  0  0  0
   41.8866   -6.0946   46.8802 H   0  0  0  0  0  0  0  0  0  0  0  0
   43.0894   -6.5575   45.8313 H   0  0  0  0  0  0  0  0  0  0  0  0
   42.9309   -1.5269   42.5728 H   0  0  0  0  0  0  0  0  0  0  0  0
  1  2  2  0  0  0  0
  1  6  1  0  0  0  0
  1 49  1  0  0  0  0
  2  3  1  0  0  0  0
  2 50  1  0  0  0  0
  3  4  2  0  0  0  0
  3 51  1  0  0  0  0
  4  5  1  0  0  0  0
  4  9  1  0  0  0  0
  5  6  2  0  0  0  0
  5  7  1  0  0  0  0
  6 52  1  0  0  0  0
  7  8  3  0  0  0  0
  9 10  1  0  0  0  0
  9 14  1  0  0  0  0
 10 11  1  0  0  0  0
 10 53  1  0  0  0  0
 10 54  1  0  0  0  0
 11 12  1  0  0  0  0
 11 55  1  0  0  0  0
 11 56  1  0  0  0  0
 12 13  1  0  0  0  0
 12 15  1  0  0  0  0
 12 57  1  0  0  0  0
 13 14  1  0  0  0  0
 13 58  1  0  0  0  0
 13 59  1  0  0  0  0
 14 60  1  0  0  0  0
 14 61  1  0  0  0  0
 15 16  1  0  0  0  0
 15 62  1  0  0  0  0
 15 63  1  0  0  0  0
 16 17  1  0  0  0  0
 16 47  1  0  0  0  0
 16 48  1  6  0  0  0
 17 18  1  0  0  0  0
 17 64  1  0  0  0  0
 17 65  1  0  0  0  0
 18 19  1  0  0  0  0
 18 22  1  0  0  0  0
 19 20  2  0  0  0  0
 19 46  1  0  0  0  0
 20 21  1  0  0  0  0
 20 43  1  0  0  0  0
 21 22  2  0  0  0  0
 21 23  1  0  0  0  0
 23 24  2  0  0  0  0
 23 28  1  0  0  0  0
 24 25  1  0  0  0  0
 24 66  1  0  0  0  0
 25 26  2  0  0  0  0
 25 67  1  0  0  0  0
 26 27  1  0  0  0  0
 26 39  1  0  0  0  0
 27 28  2  0  0  0  0
 27 29  1  0  0  0  0
 28 68  1  0  0  0  0
 29 30  1  0  0  0  0
 30 31  1  0  0  0  0
 30 69  1  0  0  0  0
 30 70  1  0  0  0  0
 31 32  1  0  0  0  0
 31 71  1  0  0  0  0
 31 72  1  0  0  0  0
 32 33  1  0  0  0  0
 32 37  1  0  0  0  0
 32 73  1  6  0  0  0
 33 34  1  0  0  0  0
 33 74  1  0  0  0  0
 33 75  1  0  0  0  0
 34 35  1  0  0  0  0
 34 76  1  0  0  0  0
 34 77  1  0  0  0  0
 35 36  1  0  0  0  0
 35 38  1  0  0  0  0
 35 78  1  1  0  0  0
 36 37  1  0  0  0  0
 36 79  1  0  0  0  0
 36 80  1  0  0  0  0
 37 81  1  0  0  0  0
 37 82  1  0  0  0  0
 39 40  1  0  0  0  0
 39 41  1  0  0  0  0
 39 42  1  0  0  0  0
 43 44  1  0  0  0  0
 43 83  1  0  0  0  0
 43 84  1  0  0  0  0
 44 45  1  0  0  0  0
 44 85  1  0  0  0  0
 44 86  1  0  0  0  0
 45 46  1  0  0  0  0
 45 87  1  0  0  0  0
 45 88  1  0  0  0  0
 46 89  1  0  0  0  0
 46 90  1  0  0  0  0
 47 91  1  0  0  0  0
M  CHG  3  12   1  32   1  44   1
M  END
