CatS_78:1_D
 OpenBabel12041818463D

 89 93  0  0  1  0  0  0  0  0999 V2000
   39.8319   -1.2604   50.5043 C   0  0  0  0  0  0  0  0  0  0  0  0
   41.1348   -0.9557   49.7499 C   0  0  2  0  0  0  0  0  0  0  0  0
   40.8015   -0.6119   48.2891 C   0  0  0  0  0  0  0  0  0  0  0  0
   42.0943   -0.2961   47.5141 C   0  0  0  0  0  0  0  0  0  0  0  0
   43.0922   -1.4313   47.5963 N   0  3  1  0  0  0  0  0  0  0  0  0
   43.3724   -1.8530   49.0177 C   0  0  0  0  0  0  0  0  0  0  0  0
   42.0698   -2.1792   49.7785 C   0  0  0  0  0  0  0  0  0  0  0  0
   42.7455   -2.6203   46.7297 C   0  0  0  0  0  0  0  0  0  0  0  0
   43.0247   -2.3398   45.2417 C   0  0  1  0  0  0  0  0  0  0  0  0
   43.2523   -3.6033   44.3955 C   0  0  0  0  0  0  0  0  0  0  0  0
   42.1140   -4.5320   44.2189 N   0  0  0  0  0  0  0  0  0  0  0  0
   41.6777   -5.6178   44.9274 C   0  0  0  0  0  0  0  0  0  0  0  0
   40.5196   -6.1046   44.4764 C   0  0  0  0  0  0  0  0  0  0  0  0
   40.2242   -5.2905   43.3611 C   0  0  0  0  0  0  0  0  0  0  0  0
   41.1737   -4.3849   43.2503 N   0  0  0  0  0  0  0  0  0  0  0  0
   39.1090   -5.3940   42.4327 C   0  0  0  0  0  0  0  0  0  0  0  0
   38.2062   -4.3552   42.2882 C   0  0  0  0  0  0  0  0  0  0  0  0
   37.1762   -4.4405   41.3792 C   0  0  0  0  0  0  0  0  0  0  0  0
   37.0038   -5.5596   40.5888 C   0  0  0  0  0  0  0  0  0  0  0  0
   37.8927   -6.6117   40.7579 C   0  0  0  0  0  0  0  0  0  0  0  0
   38.9286   -6.5263   41.6599 C   0  0  0  0  0  0  0  0  0  0  0  0
   37.7472   -8.1396   39.8200 S   0  0  0  0  0  0  0  0  0  0  0  0
   38.8117   -7.9352   38.3634 C   0  0  0  0  0  0  0  0  0  0  0  0
   40.3221   -7.9163   38.6833 C   0  0  0  0  0  0  0  0  0  0  0  0
   41.2431   -8.3645   37.5761 N   0  3  2  0  0  0  0  0  0  0  0  0
   41.5411   -9.8432   37.6820 C   0  0  0  0  0  0  0  0  0  0  0  0
   42.7780  -10.2660   36.8563 C   0  0  0  0  0  0  0  0  0  0  0  0
   42.9464   -9.3302   35.6465 C   0  0  1  0  0  0  0  0  0  0  0  0
   43.2450   -7.8872   36.1141 C   0  0  0  0  0  0  0  0  0  0  0  0
   42.4899   -7.5290   37.4186 C   0  0  0  0  0  0  0  0  0  0  0  0
   43.9829   -9.7875   34.8421 F   0  0  0  0  0  0  0  0  0  0  0  0
   35.8569   -5.5590   39.5798 C   0  0  0  0  0  0  0  0  0  0  0  0
   34.9515   -4.5158   39.7537 F   0  0  0  0  0  0  0  0  0  0  0  0
   36.3520   -5.4447   38.2847 F   0  0  0  0  0  0  0  0  0  0  0  0
   35.1349   -6.7455   39.6432 F   0  0  0  0  0  0  0  0  0  0  0  0
   39.8157   -7.3084   45.0980 C   0  0  0  0  0  0  0  0  0  0  0  0
   40.4243   -7.8886   46.3203 N   0  0  0  0  0  0  0  0  0  0  0  0
   41.8936   -7.7843   46.2233 C   0  0  0  0  0  0  0  0  0  0  0  0
   42.3540   -6.3130   46.1044 C   0  0  0  0  0  0  0  0  0  0  0  0
   39.7665   -9.3319   46.7190 S   0  0  0  0  0  0  0  0  0  0  0  0
   38.3537   -9.1675   46.7601 O   0  0  0  0  0  0  0  0  0  0  0  0
   40.3194   -9.7211   47.9714 O   0  0  0  0  0  0  0  0  0  0  0  0
   40.1662  -10.6119   45.4909 C   0  0  0  0  0  0  0  0  0  0  0  0
   41.9529   -1.5631   44.6854 O   0  0  0  0  0  0  0  0  0  0  0  0
   43.8842   -1.8296   45.2103 H   0  0  0  0  0  0  0  0  0  0  0  0
   39.0727   -1.2670   49.8534 H   0  0  0  0  0  0  0  0  0  0  0  0
   39.9006   -2.1525   50.9507 H   0  0  0  0  0  0  0  0  0  0  0  0
   39.6740   -0.5596   51.2001 H   0  0  0  0  0  0  0  0  0  0  0  0
   41.5938   -0.1850   50.1916 H   0  0  0  0  0  0  0  0  0  0  0  0
   40.1951    0.1828   48.2645 H   0  0  0  0  0  0  0  0  0  0  0  0
   40.3478   -1.3947   47.8632 H   0  0  0  0  0  0  0  0  0  0  0  0
   42.5084    0.5301   47.8960 H   0  0  0  0  0  0  0  0  0  0  0  0
   41.8549   -0.1642   46.5522 H   0  0  0  0  0  0  0  0  0  0  0  0
   43.8753   -1.0958   47.2715 H   0  0  0  0  0  0  0  0  0  0  0  0
   43.8504   -1.1122   49.4897 H   0  0  0  0  0  0  0  0  0  0  0  0
   43.9358   -2.6788   48.9944 H   0  0  0  0  0  0  0  0  0  0  0  0
   41.6149   -2.9578   49.3460 H   0  0  0  0  0  0  0  0  0  0  0  0
   42.2889   -2.4077   50.7270 H   0  0  0  0  0  0  0  0  0  0  0  0
   41.7758   -2.8358   46.8452 H   0  0  0  0  0  0  0  0  0  0  0  0
   43.3168   -3.3903   47.0134 H   0  0  0  0  0  0  0  0  0  0  0  0
   43.9967   -4.1182   44.8208 H   0  0  0  0  0  0  0  0  0  0  0  0
   43.4382   -3.2587   43.4753 H   0  0  0  0  0  0  0  0  0  0  0  0
   38.3032   -3.5338   42.8503 H   0  0  0  0  0  0  0  0  0  0  0  0
   36.5387   -3.6753   41.2891 H   0  0  0  0  0  0  0  0  0  0  0  0
   39.5606   -7.2951   41.7580 H   0  0  0  0  0  0  0  0  0  0  0  0
   38.5723   -7.0733   37.9163 H   0  0  0  0  0  0  0  0  0  0  0  0
   38.6528   -8.7294   37.7769 H   0  0  0  0  0  0  0  0  0  0  0  0
   40.4758   -8.5124   39.4714 H   0  0  0  0  0  0  0  0  0  0  0  0
   40.5489   -6.9560   38.8458 H   0  0  0  0  0  0  0  0  0  0  0  0
   40.7766   -8.2420   36.8026 H   0  0  0  0  0  0  0  0  0  0  0  0
   40.7463  -10.3549   37.3560 H   0  0  0  0  0  0  0  0  0  0  0  0
   41.7392  -10.0422   38.6417 H   0  0  0  0  0  0  0  0  0  0  0  0
   42.6596  -11.2063   36.5372 H   0  0  0  0  0  0  0  0  0  0  0  0
   43.5934  -10.2067   37.4322 H   0  0  0  0  0  0  0  0  0  0  0  0
   42.0944   -9.3262   35.1230 H   0  0  0  0  0  0  0  0  0  0  0  0
   42.9700   -7.2501   35.3941 H   0  0  0  0  0  0  0  0  0  0  0  0
   44.2254   -7.8206   36.2993 H   0  0  0  0  0  0  0  0  0  0  0  0
   43.0919   -7.6884   38.2010 H   0  0  0  0  0  0  0  0  0  0  0  0
   42.2216   -6.5667   37.3730 H   0  0  0  0  0  0  0  0  0  0  0  0
   39.7793   -8.0288   44.4053 H   0  0  0  0  0  0  0  0  0  0  0  0
   38.9243   -6.9637   45.3924 H   0  0  0  0  0  0  0  0  0  0  0  0
   42.2037   -8.2900   45.4182 H   0  0  0  0  0  0  0  0  0  0  0  0
   42.2897   -8.1679   47.0576 H   0  0  0  0  0  0  0  0  0  0  0  0
   42.1244   -5.8274   46.9478 H   0  0  0  0  0  0  0  0  0  0  0  0
   43.3425   -6.3027   45.9531 H   0  0  0  0  0  0  0  0  0  0  0  0
   40.6942  -11.3357   45.9351 H   0  0  0  0  0  0  0  0  0  0  0  0
   39.3222  -10.9936   45.1140 H   0  0  0  0  0  0  0  0  0  0  0  0
   40.7019  -10.2103   44.7482 H   0  0  0  0  0  0  0  0  0  0  0  0
   42.2650   -1.0065   43.9080 H   0  0  0  0  0  0  0  0  0  0  0  0
  1  2  1  0  0  0  0
  1 46  1  0  0  0  0
  1 47  1  0  0  0  0
  1 48  1  0  0  0  0
  2  3  1  0  0  0  0
  2  7  1  0  0  0  0
  2 49  1  1  0  0  0
  3  4  1  0  0  0  0
  3 50  1  0  0  0  0
  3 51  1  0  0  0  0
  4  5  1  0  0  0  0
  4 52  1  0  0  0  0
  4 53  1  0  0  0  0
  5  6  1  0  0  0  0
  5  8  1  0  0  0  0
  5 54  1  6  0  0  0
  6  7  1  0  0  0  0
  6 55  1  0  0  0  0
  6 56  1  0  0  0  0
  7 57  1  0  0  0  0
  7 58  1  0  0  0  0
  8  9  1  0  0  0  0
  8 59  1  0  0  0  0
  8 60  1  0  0  0  0
  9 10  1  0  0  0  0
  9 44  1  0  0  0  0
  9 45  1  6  0  0  0
 10 11  1  0  0  0  0
 10 61  1  0  0  0  0
 10 62  1  0  0  0  0
 11 12  1  0  0  0  0
 11 15  1  0  0  0  0
 12 13  2  0  0  0  0
 12 39  1  0  0  0  0
 13 14  1  0  0  0  0
 13 36  1  0  0  0  0
 14 15  2  0  0  0  0
 14 16  1  0  0  0  0
 16 17  2  0  0  0  0
 16 21  1  0  0  0  0
 17 18  1  0  0  0  0
 17 63  1  0  0  0  0
 18 19  2  0  0  0  0
 18 64  1  0  0  0  0
 19 20  1  0  0  0  0
 19 32  1  0  0  0  0
 20 21  2  0  0  0  0
 20 22  1  0  0  0  0
 21 65  1  0  0  0  0
 22 23  1  0  0  0  0
 23 24  1  0  0  0  0
 23 66  1  0  0  0  0
 23 67  1  0  0  0  0
 24 25  1  0  0  0  0
 24 68  1  0  0  0  0
 24 69  1  0  0  0  0
 25 26  1  0  0  0  0
 25 30  1  0  0  0  0
 25 70  1  6  0  0  0
 26 27  1  0  0  0  0
 26 71  1  0  0  0  0
 26 72  1  0  0  0  0
 27 28  1  0  0  0  0
 27 73  1  0  0  0  0
 27 74  1  0  0  0  0
 28 29  1  0  0  0  0
 28 31  1  0  0  0  0
 28 75  1  6  0  0  0
 29 30  1  0  0  0  0
 29 76  1  0  0  0  0
 29 77  1  0  0  0  0
 30 78  1  0  0  0  0
 30 79  1  0  0  0  0
 32 33  1  0  0  0  0
 32 34  1  0  0  0  0
 32 35  1  0  0  0  0
 36 37  1  0  0  0  0
 36 80  1  0  0  0  0
 36 81  1  0  0  0  0
 37 38  1  0  0  0  0
 37 40  1  0  0  0  0
 38 39  1  0  0  0  0
 38 82  1  0  0  0  0
 38 83  1  0  0  0  0
 39 84  1  0  0  0  0
 39 85  1  0  0  0  0
 40 41  2  0  0  0  0
 40 42  2  0  0  0  0
 40 43  1  0  0  0  0
 43 86  1  0  0  0  0
 43 87  1  0  0  0  0
 43 88  1  0  0  0  0
 44 89  1  0  0  0  0
M  CHG  2   5   1  25   1
M  END
