CatS_326:1_D
 OpenBabel12041818463D

 86 91  0  0  0  0  0  0  0  0999 V2000
   40.2355   -0.5456   49.9924 C   0  0  0  0  0  0  0  0  0  0  0  0
   41.4765    0.0119   50.2018 C   0  0  0  0  0  0  0  0  0  0  0  0
   42.5409   -0.7753   50.5896 C   0  0  0  0  0  0  0  0  0  0  0  0
   42.3469   -2.1287   50.7581 C   0  0  0  0  0  0  0  0  0  0  0  0
   41.1084   -2.6915   50.5423 C   0  0  0  0  0  0  0  0  0  0  0  0
   40.0502   -1.8979   50.1609 C   0  0  0  0  0  0  0  0  0  0  0  0
   40.8833   -4.4042   50.7421 Cl  0  0  0  0  0  0  0  0  0  0  0  0
   43.9415   -0.2126   50.8002 C   0  0  0  0  0  0  0  0  0  0  0  0
   44.5284    0.5273   49.6206 N   0  3  0  0  0  0  0  0  0  0  0  0
   45.3784   -0.2966   48.6803 C   0  0  0  0  0  0  0  0  0  0  0  0
   44.6477   -1.4024   47.9277 C   0  0  0  0  0  0  0  0  0  0  0  0
   43.6422   -1.0737   47.0391 C   0  0  0  0  0  0  0  0  0  0  0  0
   42.9558   -2.0522   46.3644 C   0  0  0  0  0  0  0  0  0  0  0  0
   43.2818   -3.3891   46.5653 C   0  0  0  0  0  0  0  0  0  0  0  0
   44.2938   -3.7187   47.4594 C   0  0  0  0  0  0  0  0  0  0  0  0
   44.9586   -2.7311   48.1383 C   0  0  0  0  0  0  0  0  0  0  0  0
   42.5983   -4.4446   45.8629 C   0  0  0  0  0  0  0  0  0  0  0  0
   41.9933   -5.3438   45.3018 C   0  0  0  0  0  0  0  0  0  0  0  0
   41.2476   -6.4132   44.6880 C   0  0  0  0  0  0  0  0  0  0  0  0
   40.9337   -6.4050   43.3316 C   0  0  0  0  0  0  0  0  0  0  0  0
   40.2035   -7.4444   42.7816 C   0  0  0  0  0  0  0  0  0  0  0  0
   39.8060   -8.4919   43.5968 C   0  0  0  0  0  0  0  0  0  0  0  0
   40.1177   -8.5082   44.9361 C   0  0  0  0  0  0  0  0  0  0  0  0
   40.8307   -7.4742   45.4881 C   0  0  0  0  0  0  0  0  0  0  0  0
   41.2169   -7.4988   47.1842 Cl  0  0  0  0  0  0  0  0  0  0  0  0
   39.8052   -7.4958   41.3842 C   0  0  0  0  0  0  0  0  0  0  0  0
   38.7332   -6.8636   40.7130 C   0  0  0  0  0  0  0  0  0  0  0  0
   38.8588   -7.2882   39.4507 C   0  0  0  0  0  0  0  0  0  0  0  0
   39.9299   -8.1136   39.2739 N   0  0  0  0  0  0  0  0  0  0  0  0
   40.4726   -8.2079   40.5061 N   0  0  0  0  0  0  0  0  0  0  0  0
   40.5312   -8.7430   38.0832 C   0  0  0  0  0  0  0  0  0  0  0  0
   41.5554   -9.8940   38.1517 C   0  0  0  0  0  0  0  0  0  0  0  0
   41.7705  -10.5780   36.7841 C   0  0  0  0  0  0  0  0  0  0  0  0
   40.8319  -11.7302   36.5144 N   0  3  0  0  0  0  0  0  0  0  0  0
   39.4561  -11.2481   36.1252 C   0  0  0  0  0  0  0  0  0  0  0  0
   38.5747  -12.3874   35.5804 C   0  0  0  0  0  0  0  0  0  0  0  0
   38.3104  -13.6189   36.8810 S   0  0  0  0  0  0  0  0  0  0  0  0
   40.0348  -14.0127   37.2701 C   0  0  0  0  0  0  0  0  0  0  0  0
   40.8116  -12.7343   37.6419 C   0  0  0  0  0  0  0  0  0  0  0  0
   37.8884   -6.8550   38.3653 C   0  0  0  0  0  0  0  0  0  0  0  0
   36.5666   -6.2574   38.9034 C   0  0  0  0  0  0  0  0  0  0  0  0
   36.6190   -5.5656   40.2125 N   0  0  0  0  0  0  0  0  0  0  0  0
   37.6492   -5.9200   41.2138 C   0  0  0  0  0  0  0  0  0  0  0  0
   35.6972   -4.6306   40.5539 C   0  0  0  0  0  0  0  0  0  0  0  0
   35.8532   -3.9053   41.5419 O   0  0  0  0  0  0  0  0  0  0  0  0
   34.5805   -4.5160   39.8058 N   0  0  0  0  0  0  0  0  0  0  0  0
   39.4679    0.0332   49.7171 H   0  0  0  0  0  0  0  0  0  0  0  0
   41.6074    0.9947   50.0720 H   0  0  0  0  0  0  0  0  0  0  0  0
   43.1121   -2.7077   51.0394 H   0  0  0  0  0  0  0  0  0  0  0  0
   39.1492   -2.3036   50.0070 H   0  0  0  0  0  0  0  0  0  0  0  0
   44.5505   -0.9736   51.0238 H   0  0  0  0  0  0  0  0  0  0  0  0
   43.8589    0.4627   51.5330 H   0  0  0  0  0  0  0  0  0  0  0  0
   43.8452    0.8742   49.1298 H   0  0  0  0  0  0  0  0  0  0  0  0
   44.9861    1.2631   49.9018 H   0  0  0  0  0  0  0  0  0  0  0  0
   46.1111   -0.7177   49.2151 H   0  0  0  0  0  0  0  0  0  0  0  0
   45.7048    0.3385   47.9802 H   0  0  0  0  0  0  0  0  0  0  0  0
   43.4121   -0.1127   46.8858 H   0  0  0  0  0  0  0  0  0  0  0  0
   42.2234   -1.8044   45.7302 H   0  0  0  0  0  0  0  0  0  0  0  0
   44.5369   -4.6773   47.6075 H   0  0  0  0  0  0  0  0  0  0  0  0
   45.6751   -2.9749   48.7920 H   0  0  0  0  0  0  0  0  0  0  0  0
   41.2363   -5.6470   42.7537 H   0  0  0  0  0  0  0  0  0  0  0  0
   39.2834   -9.2489   43.2046 H   0  0  0  0  0  0  0  0  0  0  0  0
   39.8245   -9.2743   45.5081 H   0  0  0  0  0  0  0  0  0  0  0  0
   40.9805   -8.0045   37.5804 H   0  0  0  0  0  0  0  0  0  0  0  0
   39.7398   -9.2126   37.6919 H   0  0  0  0  0  0  0  0  0  0  0  0
   41.2297  -10.5762   38.8063 H   0  0  0  0  0  0  0  0  0  0  0  0
   42.4314   -9.5039   38.4355 H   0  0  0  0  0  0  0  0  0  0  0  0
   42.7096  -10.9197   36.7470 H   0  0  0  0  0  0  0  0  0  0  0  0
   41.5846   -9.8875   36.0851 H   0  0  0  0  0  0  0  0  0  0  0  0
   41.1667  -12.1769   35.7949 H   0  0  0  0  0  0  0  0  0  0  0  0
   39.5471  -10.5430   35.4219 H   0  0  0  0  0  0  0  0  0  0  0  0
   39.0143  -10.8845   36.9454 H   0  0  0  0  0  0  0  0  0  0  0  0
   39.0271  -12.8161   34.7984 H   0  0  0  0  0  0  0  0  0  0  0  0
   37.6928  -12.0166   35.2892 H   0  0  0  0  0  0  0  0  0  0  0  0
   40.4633  -14.4412   36.4747 H   0  0  0  0  0  0  0  0  0  0  0  0
   40.0547  -14.6391   38.0493 H   0  0  0  0  0  0  0  0  0  0  0  0
   40.3818  -12.3144   38.4412 H   0  0  0  0  0  0  0  0  0  0  0  0
   41.7569  -12.9968   37.8357 H   0  0  0  0  0  0  0  0  0  0  0  0
   37.6696   -7.6514   37.8014 H   0  0  0  0  0  0  0  0  0  0  0  0
   38.3411   -6.1304   37.8457 H   0  0  0  0  0  0  0  0  0  0  0  0
   35.9071   -7.0050   38.9819 H   0  0  0  0  0  0  0  0  0  0  0  0
   36.3205   -5.5445   38.2468 H   0  0  0  0  0  0  0  0  0  0  0  0
   38.0886   -5.0764   41.5226 H   0  0  0  0  0  0  0  0  0  0  0  0
   37.1712   -6.4061   41.9452 H   0  0  0  0  0  0  0  0  0  0  0  0
   34.4213   -5.0654   39.1405 H   0  0  0  0  0  0  0  0  0  0  0  0
   33.9918   -3.8915   40.0003 H   0  0  0  0  0  0  0  0  0  0  0  0
  1  2  2  0  0  0  0
  1  6  1  0  0  0  0
  1 47  1  0  0  0  0
  2  3  1  0  0  0  0
  2 48  1  0  0  0  0
  3  4  2  0  0  0  0
  3  8  1  0  0  0  0
  4  5  1  0  0  0  0
  4 49  1  0  0  0  0
  5  6  2  0  0  0  0
  5  7  1  0  0  0  0
  6 50  1  0  0  0  0
  8  9  1  0  0  0  0
  8 51  1  0  0  0  0
  8 52  1  0  0  0  0
  9 10  1  0  0  0  0
  9 53  1  0  0  0  0
  9 54  1  0  0  0  0
 10 11  1  0  0  0  0
 10 55  1  0  0  0  0
 10 56  1  0  0  0  0
 11 12  2  0  0  0  0
 11 16  1  0  0  0  0
 12 13  1  0  0  0  0
 12 57  1  0  0  0  0
 13 14  2  0  0  0  0
 13 58  1  0  0  0  0
 14 15  1  0  0  0  0
 14 17  1  0  0  0  0
 15 16  2  0  0  0  0
 15 59  1  0  0  0  0
 16 60  1  0  0  0  0
 17 18  3  0  0  0  0
 18 19  1  0  0  0  0
 19 20  2  0  0  0  0
 19 24  1  0  0  0  0
 20 21  1  0  0  0  0
 20 61  1  0  0  0  0
 21 22  2  0  0  0  0
 21 26  1  0  0  0  0
 22 23  1  0  0  0  0
 22 62  1  0  0  0  0
 23 24  2  0  0  0  0
 23 63  1  0  0  0  0
 24 25  1  0  0  0  0
 26 27  1  0  0  0  0
 26 30  2  0  0  0  0
 27 28  2  0  0  0  0
 27 43  1  0  0  0  0
 28 29  1  0  0  0  0
 28 40  1  0  0  0  0
 29 30  1  0  0  0  0
 29 31  1  0  0  0  0
 31 32  1  0  0  0  0
 31 64  1  0  0  0  0
 31 65  1  0  0  0  0
 32 33  1  0  0  0  0
 32 66  1  0  0  0  0
 32 67  1  0  0  0  0
 33 34  1  0  0  0  0
 33 68  1  0  0  0  0
 33 69  1  0  0  0  0
 34 35  1  0  0  0  0
 34 39  1  0  0  0  0
 34 70  1  0  0  0  0
 35 36  1  0  0  0  0
 35 71  1  0  0  0  0
 35 72  1  0  0  0  0
 36 37  1  0  0  0  0
 36 73  1  0  0  0  0
 36 74  1  0  0  0  0
 37 38  1  0  0  0  0
 38 39  1  0  0  0  0
 38 75  1  0  0  0  0
 38 76  1  0  0  0  0
 39 77  1  0  0  0  0
 39 78  1  0  0  0  0
 40 41  1  0  0  0  0
 40 79  1  0  0  0  0
 40 80  1  0  0  0  0
 41 42  1  0  0  0  0
 41 81  1  0  0  0  0
 41 82  1  0  0  0  0
 42 43  1  0  0  0  0
 42 44  1  0  0  0  0
 43 83  1  0  0  0  0
 43 84  1  0  0  0  0
 44 45  2  0  0  0  0
 44 46  1  0  0  0  0
 46 85  1  0  0  0  0
 46 86  1  0  0  0  0
M  CHG  2   9   1  34   1
M  END
