CatS_358:1_D
 OpenBabel12041818463D

 93 98  0  0  1  0  0  0  0  0999 V2000
   35.8008   -5.4271   37.6247 C   0  0  0  0  0  0  0  0  0  0  0  0
   36.6087   -5.4145   38.9402 C   0  0  1  0  0  0  0  0  0  0  0  0
   35.7795   -6.0960   40.0475 C   0  0  0  0  0  0  0  0  0  0  0  0
   35.6832   -7.5140   39.8126 O   0  0  0  0  0  0  0  0  0  0  0  0
   36.9692   -8.1622   39.8344 C   0  0  0  0  0  0  0  0  0  0  0  0
   37.8943   -7.5926   38.7408 C   0  0  0  0  0  0  0  0  0  0  0  0
   37.9655   -6.0862   38.8432 N   0  3  2  0  0  0  0  0  0  0  0  0
   38.9429   -5.6026   39.8877 C   0  0  0  0  0  0  0  0  0  0  0  0
   38.3838   -4.5100   40.8239 C   0  0  0  0  0  0  0  0  0  0  0  0
   38.3288   -5.0779   42.2542 C   0  0  0  0  0  0  0  0  0  0  0  0
   39.4857   -5.1528   43.1621 N   0  0  0  0  0  0  0  0  0  0  0  0
   40.0241   -6.1679   43.8927 C   0  0  0  0  0  0  0  0  0  0  0  0
   41.1931   -5.8385   44.4537 C   0  0  0  0  0  0  0  0  0  0  0  0
   41.3841   -4.4947   44.0568 C   0  0  0  0  0  0  0  0  0  0  0  0
   40.3653   -4.1439   43.3078 N   0  0  0  0  0  0  0  0  0  0  0  0
   42.4708   -3.5681   44.3236 C   0  0  0  0  0  0  0  0  0  0  0  0
   42.3148   -2.7551   45.4314 C   0  0  0  0  0  0  0  0  0  0  0  0
   43.2769   -1.8410   45.7699 C   0  0  0  0  0  0  0  0  0  0  0  0
   44.4105   -1.7276   45.0010 C   0  0  0  0  0  0  0  0  0  0  0  0
   44.5942   -2.5313   43.8928 C   0  0  0  0  0  0  0  0  0  0  0  0
   43.6267   -3.4578   43.5577 C   0  0  0  0  0  0  0  0  0  0  0  0
   45.8901   -2.2519   43.1424 C   0  0  0  0  0  0  0  0  0  0  0  0
   46.0021   -1.2909   41.9366 C   0  0  0  0  0  0  0  0  0  0  0  0
   46.9187   -1.8100   40.8264 C   0  0  0  0  0  0  0  0  0  0  0  0
   48.2598   -2.0435   41.0511 C   0  0  0  0  0  0  0  0  0  0  0  0
   49.0714   -2.5256   40.0543 C   0  0  0  0  0  0  0  0  0  0  0  0
   48.5653   -2.7828   38.8030 C   0  0  0  0  0  0  0  0  0  0  0  0
   47.2282   -2.5455   38.5624 C   0  0  0  0  0  0  0  0  0  0  0  0
   46.4143   -2.0631   39.5679 C   0  0  0  0  0  0  0  0  0  0  0  0
   49.5797   -3.3342   37.8130 C   0  0  0  0  0  0  0  0  0  0  0  0
   50.3076   -2.3483   36.9446 N   0  3  0  0  0  0  0  0  0  0  0  0
   51.7802   -2.3154   37.2507 C   0  0  0  0  0  0  0  0  0  0  0  0
   52.6489   -1.4967   36.3115 C   0  0  0  0  0  0  0  0  0  0  0  0
   53.1319   -0.3073   36.8100 C   0  0  0  0  0  0  0  0  0  0  0  0
   53.9263    0.5035   36.0337 C   0  0  0  0  0  0  0  0  0  0  0  0
   54.2429    0.1260   34.7486 C   0  0  0  0  0  0  0  0  0  0  0  0
   53.7631   -1.0628   34.2445 C   0  0  0  0  0  0  0  0  0  0  0  0
   52.9679   -1.8724   35.0243 C   0  0  0  0  0  0  0  0  0  0  0  0
   55.2472    1.1528   33.7680 Cl  0  0  0  0  0  0  0  0  0  0  0  0
   45.6117   -0.5483   45.4454 Cl  0  0  0  0  0  0  0  0  0  0  0  0
   42.0417   -6.7757   45.3022 C   0  0  0  0  0  0  0  0  0  0  0  0
   41.4062   -8.0756   45.6193 N   0  0  0  0  0  0  0  0  0  0  0  0
   40.0051   -8.3605   45.2263 C   0  0  0  0  0  0  0  0  0  0  0  0
   39.4000   -7.5399   44.0625 C   0  0  0  0  0  0  0  0  0  0  0  0
   42.1366   -8.9832   46.3148 C   0  0  0  0  0  0  0  0  0  0  0  0
   43.3528   -8.8394   46.4787 O   0  0  0  0  0  0  0  0  0  0  0  0
   41.5092  -10.0504   46.8510 N   0  0  0  0  0  0  0  0  0  0  0  0
   36.7880   -4.4540   39.1532 H   0  0  0  0  0  0  0  0  0  0  0  0
   34.9029   -5.0192   37.7902 H   0  0  0  0  0  0  0  0  0  0  0  0
   36.2856   -4.9020   36.9254 H   0  0  0  0  0  0  0  0  0  0  0  0
   35.6905   -6.3687   37.3065 H   0  0  0  0  0  0  0  0  0  0  0  0
   34.8613   -5.7002   40.0625 H   0  0  0  0  0  0  0  0  0  0  0  0
   36.2333   -5.9472   40.9260 H   0  0  0  0  0  0  0  0  0  0  0  0
   36.8452   -9.1429   39.6831 H   0  0  0  0  0  0  0  0  0  0  0  0
   37.3930   -7.9983   40.7252 H   0  0  0  0  0  0  0  0  0  0  0  0
   37.5398   -7.8480   37.8413 H   0  0  0  0  0  0  0  0  0  0  0  0
   38.8126   -7.9688   38.8646 H   0  0  0  0  0  0  0  0  0  0  0  0
   38.3071   -5.8033   38.0463 H   0  0  0  0  0  0  0  0  0  0  0  0
   39.7473   -5.2361   39.4200 H   0  0  0  0  0  0  0  0  0  0  0  0
   39.1572   -6.3903   40.4653 H   0  0  0  0  0  0  0  0  0  0  0  0
   37.4661   -4.2458   40.5270 H   0  0  0  0  0  0  0  0  0  0  0  0
   38.9719   -3.7017   40.7986 H   0  0  0  0  0  0  0  0  0  0  0  0
   37.9954   -6.0161   42.1604 H   0  0  0  0  0  0  0  0  0  0  0  0
   37.7789   -4.3792   42.7116 H   0  0  0  0  0  0  0  0  0  0  0  0
   41.4903   -2.8355   45.9915 H   0  0  0  0  0  0  0  0  0  0  0  0
   43.1551   -1.2584   46.5735 H   0  0  0  0  0  0  0  0  0  0  0  0
   43.7572   -4.0505   42.7629 H   0  0  0  0  0  0  0  0  0  0  0  0
   46.2112   -3.1403   42.8142 H   0  0  0  0  0  0  0  0  0  0  0  0
   46.4043   -1.7456   43.8346 H   0  0  0  0  0  0  0  0  0  0  0  0
   46.3580   -0.4143   42.2605 H   0  0  0  0  0  0  0  0  0  0  0  0
   45.0867   -1.2035   41.5438 H   0  0  0  0  0  0  0  0  0  0  0  0
   48.6468   -1.8587   41.9544 H   0  0  0  0  0  0  0  0  0  0  0  0
   50.0399   -2.6910   40.2407 H   0  0  0  0  0  0  0  0  0  0  0  0
   46.8464   -2.7237   37.6555 H   0  0  0  0  0  0  0  0  0  0  0  0
   45.4464   -1.8948   39.3812 H   0  0  0  0  0  0  0  0  0  0  0  0
   49.0969   -3.9691   37.2098 H   0  0  0  0  0  0  0  0  0  0  0  0
   50.2923   -3.7458   38.3812 H   0  0  0  0  0  0  0  0  0  0  0  0
   50.1779   -2.5525   36.0672 H   0  0  0  0  0  0  0  0  0  0  0  0
   49.9491   -1.5186   37.0511 H   0  0  0  0  0  0  0  0  0  0  0  0
   52.1162   -3.2572   37.2359 H   0  0  0  0  0  0  0  0  0  0  0  0
   51.8557   -1.8641   38.1398 H   0  0  0  0  0  0  0  0  0  0  0  0
   52.9031   -0.0312   37.7435 H   0  0  0  0  0  0  0  0  0  0  0  0
   54.2734    1.3658   36.4024 H   0  0  0  0  0  0  0  0  0  0  0  0
   53.9926   -1.3382   33.3110 H   0  0  0  0  0  0  0  0  0  0  0  0
   52.6209   -2.7349   34.6558 H   0  0  0  0  0  0  0  0  0  0  0  0
   42.2532   -6.3122   46.1627 H   0  0  0  0  0  0  0  0  0  0  0  0
   42.8544   -6.9871   44.7594 H   0  0  0  0  0  0  0  0  0  0  0  0
   39.4316   -8.2083   46.0312 H   0  0  0  0  0  0  0  0  0  0  0  0
   40.0264   -9.3001   44.8848 H   0  0  0  0  0  0  0  0  0  0  0  0
   39.5256   -8.0524   43.2131 H   0  0  0  0  0  0  0  0  0  0  0  0
   38.4346   -7.3959   44.2800 H   0  0  0  0  0  0  0  0  0  0  0  0
   40.6389  -10.1442   46.7897 H   0  0  0  0  0  0  0  0  0  0  0  0
   41.9789  -10.6550   47.2846 H   0  0  0  0  0  0  0  0  0  0  0  0
  1  2  1  0  0  0  0
  1 49  1  0  0  0  0
  1 50  1  0  0  0  0
  1 51  1  0  0  0  0
  2  3  1  0  0  0  0
  2  7  1  0  0  0  0
  2 48  1  1  0  0  0
  3  4  1  0  0  0  0
  3 52  1  0  0  0  0
  3 53  1  0  0  0  0
  4  5  1  0  0  0  0
  5  6  1  0  0  0  0
  5 54  1  0  0  0  0
  5 55  1  0  0  0  0
  6  7  1  0  0  0  0
  6 56  1  0  0  0  0
  6 57  1  0  0  0  0
  7  8  1  0  0  0  0
  7 58  1  6  0  0  0
  8  9  1  0  0  0  0
  8 59  1  0  0  0  0
  8 60  1  0  0  0  0
  9 10  1  0  0  0  0
  9 61  1  0  0  0  0
  9 62  1  0  0  0  0
 10 11  1  0  0  0  0
 10 63  1  0  0  0  0
 10 64  1  0  0  0  0
 11 12  1  0  0  0  0
 11 15  1  0  0  0  0
 12 13  2  0  0  0  0
 12 44  1  0  0  0  0
 13 14  1  0  0  0  0
 13 41  1  0  0  0  0
 14 15  2  0  0  0  0
 14 16  1  0  0  0  0
 16 17  2  0  0  0  0
 16 21  1  0  0  0  0
 17 18  1  0  0  0  0
 17 65  1  0  0  0  0
 18 19  2  0  0  0  0
 18 66  1  0  0  0  0
 19 20  1  0  0  0  0
 19 40  1  0  0  0  0
 20 21  2  0  0  0  0
 20 22  1  0  0  0  0
 21 67  1  0  0  0  0
 22 23  1  0  0  0  0
 22 68  1  0  0  0  0
 22 69  1  0  0  0  0
 23 24  1  0  0  0  0
 23 70  1  0  0  0  0
 23 71  1  0  0  0  0
 24 25  2  0  0  0  0
 24 29  1  0  0  0  0
 25 26  1  0  0  0  0
 25 72  1  0  0  0  0
 26 27  2  0  0  0  0
 26 73  1  0  0  0  0
 27 28  1  0  0  0  0
 27 30  1  0  0  0  0
 28 29  2  0  0  0  0
 28 74  1  0  0  0  0
 29 75  1  0  0  0  0
 30 31  1  0  0  0  0
 30 76  1  0  0  0  0
 30 77  1  0  0  0  0
 31 32  1  0  0  0  0
 31 78  1  0  0  0  0
 31 79  1  0  0  0  0
 32 33  1  0  0  0  0
 32 80  1  0  0  0  0
 32 81  1  0  0  0  0
 33 34  2  0  0  0  0
 33 38  1  0  0  0  0
 34 35  1  0  0  0  0
 34 82  1  0  0  0  0
 35 36  2  0  0  0  0
 35 83  1  0  0  0  0
 36 37  1  0  0  0  0
 36 39  1  0  0  0  0
 37 38  2  0  0  0  0
 37 84  1  0  0  0  0
 38 85  1  0  0  0  0
 41 42  1  0  0  0  0
 41 86  1  0  0  0  0
 41 87  1  0  0  0  0
 42 43  1  0  0  0  0
 42 45  1  0  0  0  0
 43 44  1  0  0  0  0
 43 88  1  0  0  0  0
 43 89  1  0  0  0  0
 44 90  1  0  0  0  0
 44 91  1  0  0  0  0
 45 46  2  0  0  0  0
 45 47  1  0  0  0  0
 47 92  1  0  0  0  0
 47 93  1  0  0  0  0
M  CHG  2   7   1  31   1
M  END
