CatS_21:1_D
 OpenBabel12041818463D

 95 99  0  0  0  0  0  0  0  0999 V2000
   44.3293   -8.5945   35.6249 C   0  0  0  0  0  0  0  0  0  0  0  0
   42.8712   -9.0054   35.9100 C   0  0  0  0  0  0  0  0  0  0  0  0
   42.8255  -10.5010   36.2654 C   0  0  0  0  0  0  0  0  0  0  0  0
   42.2801   -8.1647   37.0661 C   0  0  0  0  0  0  0  0  0  0  0  0
   40.8649   -8.5574   37.4348 N   0  3  0  0  0  0  0  0  0  0  0  0
   40.2544   -7.7647   38.5630 C   0  0  0  0  0  0  0  0  0  0  0  0
   38.7175   -7.6568   38.4568 C   0  0  0  0  0  0  0  0  0  0  0  0
   37.9149   -8.1003   40.0253 S   0  0  0  0  0  0  0  0  0  0  0  0
   38.3989   -6.8807   41.2553 C   0  0  0  0  0  0  0  0  0  0  0  0
   39.3666   -7.2519   42.1676 C   0  0  0  0  0  0  0  0  0  0  0  0
   39.7825   -6.3721   43.1523 C   0  0  0  0  0  0  0  0  0  0  0  0
   39.1831   -5.1267   43.2005 C   0  0  0  0  0  0  0  0  0  0  0  0
   38.2296   -4.7557   42.2899 C   0  0  0  0  0  0  0  0  0  0  0  0
   37.8262   -5.6140   41.2917 C   0  0  0  0  0  0  0  0  0  0  0  0
   36.7670   -5.0433   40.3487 C   0  0  0  0  0  0  0  0  0  0  0  0
   37.2213   -4.9431   39.0396 F   0  0  0  0  0  0  0  0  0  0  0  0
   35.6388   -5.8514   40.3460 F   0  0  0  0  0  0  0  0  0  0  0  0
   36.3384   -3.7653   40.7040 F   0  0  0  0  0  0  0  0  0  0  0  0
   40.8107   -6.6870   44.1342 C   0  0  0  0  0  0  0  0  0  0  0  0
   41.6133   -5.7516   44.8196 C   0  0  0  0  0  0  0  0  0  0  0  0
   42.3701   -6.4993   45.6243 C   0  0  0  0  0  0  0  0  0  0  0  0
   42.1310   -7.8425   45.4886 N   0  0  0  0  0  0  0  0  0  0  0  0
   41.1513   -7.8938   44.5416 N   0  0  0  0  0  0  0  0  0  0  0  0
   42.7438   -9.0484   46.1055 C   0  0  0  0  0  0  0  0  0  0  0  0
   42.3637   -9.2422   47.5812 C   0  0  0  0  0  0  0  0  0  0  0  0
   41.0227   -9.8812   47.9961 C   0  0  0  0  0  0  0  0  0  0  0  0
   40.7926  -11.1076   47.1341 N   0  3  1  0  0  0  0  0  0  0  0  0
   40.8015  -12.3793   47.9373 C   0  0  0  0  0  0  0  0  0  0  0  0
   40.7044  -13.6150   47.0145 C   0  0  0  0  0  0  0  0  0  0  0  0
   39.4270  -13.5841   46.1390 C   0  0  1  0  0  0  0  0  0  0  0  0
   39.4437  -12.2690   45.3309 C   0  0  0  0  0  0  0  0  0  0  0  0
   39.5810  -11.0297   46.2298 C   0  0  0  0  0  0  0  0  0  0  0  0
   39.2661  -14.7995   45.3050 N   0  0  0  0  0  0  0  0  0  0  0  0
   40.3292  -15.2773   44.4067 C   0  0  0  0  0  0  0  0  0  0  0  0
   39.8420  -16.7078   44.1067 C   0  0  0  0  0  0  0  0  0  0  0  0
   38.3291  -16.7080   44.3647 C   0  0  0  0  0  0  0  0  0  0  0  0
   38.1621  -15.5691   45.3349 C   0  0  0  0  0  0  0  0  0  0  0  0
   37.1678  -15.4271   46.0322 O   0  0  0  0  0  0  0  0  0  0  0  0
   43.3883   -5.7966   46.5246 C   0  0  0  0  0  0  0  0  0  0  0  0
   43.1622   -4.2732   46.6385 C   0  0  0  0  0  0  0  0  0  0  0  0
   42.9776   -3.7158   45.2871 N   0  0  0  0  0  0  0  0  0  0  0  0
   41.7080   -4.2327   44.7414 C   0  0  0  0  0  0  0  0  0  0  0  0
   43.3220   -2.1559   45.0083 S   0  0  0  0  0  0  0  0  0  0  0  0
   44.6152   -1.8711   45.5447 O   0  0  0  0  0  0  0  0  0  0  0  0
   43.1540   -1.9696   43.6017 O   0  0  0  0  0  0  0  0  0  0  0  0
   42.1007   -1.1428   45.8881 C   0  0  0  0  0  0  0  0  0  0  0  0
   44.3713   -8.1395   34.7354 H   0  0  0  0  0  0  0  0  0  0  0  0
   44.6502   -7.9710   36.3377 H   0  0  0  0  0  0  0  0  0  0  0  0
   44.9125   -9.4069   35.6164 H   0  0  0  0  0  0  0  0  0  0  0  0
   42.3206   -8.8379   35.0922 H   0  0  0  0  0  0  0  0  0  0  0  0
   42.4207  -10.6077   37.1736 H   0  0  0  0  0  0  0  0  0  0  0  0
   42.2738  -10.9918   35.5911 H   0  0  0  0  0  0  0  0  0  0  0  0
   43.7525  -10.8762   36.2627 H   0  0  0  0  0  0  0  0  0  0  0  0
   42.2837   -7.2025   36.7937 H   0  0  0  0  0  0  0  0  0  0  0  0
   42.8496   -8.3300   37.8713 H   0  0  0  0  0  0  0  0  0  0  0  0
   40.8453   -9.4452   37.6489 H   0  0  0  0  0  0  0  0  0  0  0  0
   40.3136   -8.5049   36.7145 H   0  0  0  0  0  0  0  0  0  0  0  0
   40.6431   -6.8434   38.5546 H   0  0  0  0  0  0  0  0  0  0  0  0
   40.4626   -8.2453   39.4149 H   0  0  0  0  0  0  0  0  0  0  0  0
   38.3951   -8.2722   37.7375 H   0  0  0  0  0  0  0  0  0  0  0  0
   38.4819   -6.7094   38.2399 H   0  0  0  0  0  0  0  0  0  0  0  0
   39.7710   -8.1650   42.1165 H   0  0  0  0  0  0  0  0  0  0  0  0
   39.4520   -4.4824   43.9164 H   0  0  0  0  0  0  0  0  0  0  0  0
   37.8195   -3.8458   42.3510 H   0  0  0  0  0  0  0  0  0  0  0  0
   43.7384   -8.9683   46.0401 H   0  0  0  0  0  0  0  0  0  0  0  0
   42.3960   -9.8424   45.6069 H   0  0  0  0  0  0  0  0  0  0  0  0
   42.3868   -8.3344   48.0001 H   0  0  0  0  0  0  0  0  0  0  0  0
   43.0266   -9.9276   47.8829 H   0  0  0  0  0  0  0  0  0  0  0  0
   40.2787   -9.2264   47.8626 H   0  0  0  0  0  0  0  0  0  0  0  0
   41.0488  -10.1402   48.9616 H   0  0  0  0  0  0  0  0  0  0  0  0
   41.5080  -11.1590   46.5682 H   0  0  0  0  0  0  0  0  0  0  0  0
   40.0247  -12.3760   48.5670 H   0  0  0  0  0  0  0  0  0  0  0  0
   41.6605  -12.4293   48.4468 H   0  0  0  0  0  0  0  0  0  0  0  0
   40.6931  -14.4409   47.5781 H   0  0  0  0  0  0  0  0  0  0  0  0
   41.4967  -13.6084   46.4042 H   0  0  0  0  0  0  0  0  0  0  0  0
   38.6141  -13.5978   46.7212 H   0  0  0  0  0  0  0  0  0  0  0  0
   38.5923  -12.1991   44.8112 H   0  0  0  0  0  0  0  0  0  0  0  0
   40.2390  -12.2940   44.7252 H   0  0  0  0  0  0  0  0  0  0  0  0
   39.6607  -10.2174   45.6521 H   0  0  0  0  0  0  0  0  0  0  0  0
   38.7683  -10.9831   46.8108 H   0  0  0  0  0  0  0  0  0  0  0  0
   41.2212  -15.2777   44.8586 H   0  0  0  0  0  0  0  0  0  0  0  0
   40.4664  -14.7113   43.5938 H   0  0  0  0  0  0  0  0  0  0  0  0
   40.2988  -17.3643   44.7070 H   0  0  0  0  0  0  0  0  0  0  0  0
   40.0500  -16.9736   43.1652 H   0  0  0  0  0  0  0  0  0  0  0  0
   38.0295  -17.5739   44.7651 H   0  0  0  0  0  0  0  0  0  0  0  0
   37.7836  -16.6043   43.5330 H   0  0  0  0  0  0  0  0  0  0  0  0
   44.3033   -5.9564   46.1546 H   0  0  0  0  0  0  0  0  0  0  0  0
   43.2810   -6.1779   47.4428 H   0  0  0  0  0  0  0  0  0  0  0  0
   43.9542   -3.8465   47.0752 H   0  0  0  0  0  0  0  0  0  0  0  0
   42.3496   -4.0919   47.1925 H   0  0  0  0  0  0  0  0  0  0  0  0
   40.9491   -3.8358   45.2577 H   0  0  0  0  0  0  0  0  0  0  0  0
   41.6672   -3.9756   43.7758 H   0  0  0  0  0  0  0  0  0  0  0  0
   41.5449   -0.6490   45.2193 H   0  0  0  0  0  0  0  0  0  0  0  0
   41.5139   -1.7297   46.4460 H   0  0  0  0  0  0  0  0  0  0  0  0
   42.5702   -0.4913   46.4840 H   0  0  0  0  0  0  0  0  0  0  0  0
  1  2  1  0  0  0  0
  1 47  1  0  0  0  0
  1 48  1  0  0  0  0
  1 49  1  0  0  0  0
  2  3  1  0  0  0  0
  2  4  1  0  0  0  0
  2 50  1  0  0  0  0
  3 51  1  0  0  0  0
  3 52  1  0  0  0  0
  3 53  1  0  0  0  0
  4  5  1  0  0  0  0
  4 54  1  0  0  0  0
  4 55  1  0  0  0  0
  5  6  1  0  0  0  0
  5 56  1  0  0  0  0
  5 57  1  0  0  0  0
  6  7  1  0  0  0  0
  6 58  1  0  0  0  0
  6 59  1  0  0  0  0
  7  8  1  0  0  0  0
  7 60  1  0  0  0  0
  7 61  1  0  0  0  0
  8  9  1  0  0  0  0
  9 10  2  0  0  0  0
  9 14  1  0  0  0  0
 10 11  1  0  0  0  0
 10 62  1  0  0  0  0
 11 12  2  0  0  0  0
 11 19  1  0  0  0  0
 12 13  1  0  0  0  0
 12 63  1  0  0  0  0
 13 14  2  0  0  0  0
 13 64  1  0  0  0  0
 14 15  1  0  0  0  0
 15 16  1  0  0  0  0
 15 17  1  0  0  0  0
 15 18  1  0  0  0  0
 19 20  1  0  0  0  0
 19 23  2  0  0  0  0
 20 21  2  0  0  0  0
 20 42  1  0  0  0  0
 21 22  1  0  0  0  0
 21 39  1  0  0  0  0
 22 23  1  0  0  0  0
 22 24  1  0  0  0  0
 24 25  1  0  0  0  0
 24 65  1  0  0  0  0
 24 66  1  0  0  0  0
 25 26  1  0  0  0  0
 25 67  1  0  0  0  0
 25 68  1  0  0  0  0
 26 27  1  0  0  0  0
 26 69  1  0  0  0  0
 26 70  1  0  0  0  0
 27 28  1  0  0  0  0
 27 32  1  0  0  0  0
 27 71  1  6  0  0  0
 28 29  1  0  0  0  0
 28 72  1  0  0  0  0
 28 73  1  0  0  0  0
 29 30  1  0  0  0  0
 29 74  1  0  0  0  0
 29 75  1  0  0  0  0
 30 31  1  0  0  0  0
 30 33  1  0  0  0  0
 30 76  1  1  0  0  0
 31 32  1  0  0  0  0
 31 77  1  0  0  0  0
 31 78  1  0  0  0  0
 32 79  1  0  0  0  0
 32 80  1  0  0  0  0
 33 34  1  0  0  0  0
 33 37  1  0  0  0  0
 34 35  1  0  0  0  0
 34 81  1  0  0  0  0
 34 82  1  0  0  0  0
 35 36  1  0  0  0  0
 35 83  1  0  0  0  0
 35 84  1  0  0  0  0
 36 37  1  0  0  0  0
 36 85  1  0  0  0  0
 36 86  1  0  0  0  0
 37 38  2  0  0  0  0
 39 40  1  0  0  0  0
 39 87  1  0  0  0  0
 39 88  1  0  0  0  0
 40 41  1  0  0  0  0
 40 89  1  0  0  0  0
 40 90  1  0  0  0  0
 41 42  1  0  0  0  0
 41 43  1  0  0  0  0
 42 91  1  0  0  0  0
 42 92  1  0  0  0  0
 43 44  2  0  0  0  0
 43 45  2  0  0  0  0
 43 46  1  0  0  0  0
 46 93  1  0  0  0  0
 46 94  1  0  0  0  0
 46 95  1  0  0  0  0
M  CHG  2   5   1  27   1
M  END
