CatS_96:1_D
 OpenBabel12041818463D

 95100  0  0  1  0  0  0  0  0999 V2000
   39.4687   -4.9827   53.8908 C   0  0  0  0  0  0  0  0  0  0  0  0
   40.6506   -4.1703   53.7413 O   0  0  0  0  0  0  0  0  0  0  0  0
   40.9210   -3.6403   52.5403 C   0  0  0  0  0  0  0  0  0  0  0  0
   41.5650   -4.3463   51.5365 C   0  0  0  0  0  0  0  0  0  0  0  0
   41.8209   -3.7576   50.3207 C   0  0  0  0  0  0  0  0  0  0  0  0
   41.4443   -2.4530   50.0770 C   0  0  0  0  0  0  0  0  0  0  0  0
   40.8019   -1.7497   51.0733 C   0  0  0  0  0  0  0  0  0  0  0  0
   40.5428   -2.3349   52.2902 C   0  0  0  0  0  0  0  0  0  0  0  0
   41.7173   -1.7755   48.7375 C   0  0  1  0  0  0  0  0  0  0  0  0
   40.6714   -0.6978   48.3455 C   0  0  0  0  0  0  0  0  0  0  0  0
   41.2079    0.2987   47.2869 C   0  0  0  0  0  0  0  0  0  0  0  0
   42.2444   -0.3490   46.4038 N   0  3  1  0  0  0  0  0  0  0  0  0
   43.4679   -0.7851   47.1770 C   0  0  0  0  0  0  0  0  0  0  0  0
   43.1427   -1.1945   48.6342 C   0  0  0  0  0  0  0  0  0  0  0  0
   41.7042   -1.4547   45.5327 C   0  0  0  0  0  0  0  0  0  0  0  0
   42.8118   -2.3125   44.8792 C   0  0  1  0  0  0  0  0  0  0  0  0
   42.6854   -3.8047   45.2527 C   0  0  0  0  0  0  0  0  0  0  0  0
   41.7091   -4.7858   44.7372 N   0  0  0  0  0  0  0  0  0  0  0  0
   41.2993   -6.0146   45.1687 C   0  0  0  0  0  0  0  0  0  0  0  0
   40.3497   -6.5442   44.3858 C   0  0  0  0  0  0  0  0  0  0  0  0
   40.1356   -5.5598   43.3956 C   0  0  0  0  0  0  0  0  0  0  0  0
   40.9553   -4.5603   43.6336 N   0  0  0  0  0  0  0  0  0  0  0  0
   39.2005   -5.5734   42.2810 C   0  0  0  0  0  0  0  0  0  0  0  0
   38.0424   -4.8160   42.3054 C   0  0  0  0  0  0  0  0  0  0  0  0
   37.1546   -4.8557   41.2576 C   0  0  0  0  0  0  0  0  0  0  0  0
   37.3796   -5.6474   40.1510 C   0  0  0  0  0  0  0  0  0  0  0  0
   38.5530   -6.3913   40.1154 C   0  0  0  0  0  0  0  0  0  0  0  0
   39.4466   -6.3493   41.1629 C   0  0  0  0  0  0  0  0  0  0  0  0
   38.9596   -7.4808   38.7409 S   0  0  0  0  0  0  0  0  0  0  0  0
   40.5113   -8.3720   39.0504 C   0  0  0  0  0  0  0  0  0  0  0  0
   40.7636   -9.4237   37.9463 C   0  0  0  0  0  0  0  0  0  0  0  0
   41.7240   -8.9961   36.8655 N   0  3  1  0  0  0  0  0  0  0  0  0
   42.6441   -7.9006   37.3499 C   0  0  0  0  0  0  0  0  0  0  0  0
   43.5724   -7.4056   36.2233 C   0  0  0  0  0  0  0  0  0  0  0  0
   44.3759   -8.5888   35.6537 C   0  0  1  0  0  0  0  0  0  0  0  0
   43.4119   -9.6677   35.1229 C   0  0  0  0  0  0  0  0  0  0  0  0
   42.4838  -10.1503   36.2578 C   0  0  0  0  0  0  0  0  0  0  0  0
   45.1826   -8.1358   34.6164 F   0  0  0  0  0  0  0  0  0  0  0  0
   36.2845   -5.5982   39.0861 C   0  0  0  0  0  0  0  0  0  0  0  0
   35.1652   -4.8912   39.5091 F   0  0  0  0  0  0  0  0  0  0  0  0
   36.6996   -4.9881   37.9053 F   0  0  0  0  0  0  0  0  0  0  0  0
   35.8769   -6.8811   38.7446 F   0  0  0  0  0  0  0  0  0  0  0  0
   39.7067   -7.9084   44.6040 C   0  0  0  0  0  0  0  0  0  0  0  0
   40.5297   -8.7265   45.5698 N   0  3  0  0  0  0  0  0  0  0  0  0
   40.9628   -7.9745   46.7999 C   0  0  0  0  0  0  0  0  0  0  0  0
   41.8334   -6.7673   46.3852 C   0  0  0  0  0  0  0  0  0  0  0  0
   42.8777   -2.1314   43.4583 O   0  0  0  0  0  0  0  0  0  0  0  0
   43.6782   -1.9835   45.2549 H   0  0  0  0  0  0  0  0  0  0  0  0
   38.9943   -5.0321   53.0119 H   0  0  0  0  0  0  0  0  0  0  0  0
   39.7263   -5.9026   54.1865 H   0  0  0  0  0  0  0  0  0  0  0  0
   38.8658   -4.5769   54.5777 H   0  0  0  0  0  0  0  0  0  0  0  0
   41.8461   -5.2923   51.6980 H   0  0  0  0  0  0  0  0  0  0  0  0
   42.2847   -4.2806   49.6056 H   0  0  0  0  0  0  0  0  0  0  0  0
   40.5214   -0.8040   50.9093 H   0  0  0  0  0  0  0  0  0  0  0  0
   40.0756   -1.8103   53.0019 H   0  0  0  0  0  0  0  0  0  0  0  0
   41.6328   -2.5196   48.0748 H   0  0  0  0  0  0  0  0  0  0  0  0
   40.4121   -0.1882   49.1659 H   0  0  0  0  0  0  0  0  0  0  0  0
   39.8871   -1.1703   47.9435 H   0  0  0  0  0  0  0  0  0  0  0  0
   41.6171    1.0831   47.7531 H   0  0  0  0  0  0  0  0  0  0  0  0
   40.4436    0.5923   46.7128 H   0  0  0  0  0  0  0  0  0  0  0  0
   42.5194    0.3043   45.8325 H   0  0  0  0  0  0  0  0  0  0  0  0
   44.1233   -0.0299   47.1934 H   0  0  0  0  0  0  0  0  0  0  0  0
   43.8438   -1.5894   46.7166 H   0  0  0  0  0  0  0  0  0  0  0  0
   43.8013   -1.8827   48.9383 H   0  0  0  0  0  0  0  0  0  0  0  0
   43.1989   -0.3812   49.2132 H   0  0  0  0  0  0  0  0  0  0  0  0
   41.1460   -1.0476   44.8097 H   0  0  0  0  0  0  0  0  0  0  0  0
   41.1691   -2.0612   46.1209 H   0  0  0  0  0  0  0  0  0  0  0  0
   42.5548   -3.8096   46.2441 H   0  0  0  0  0  0  0  0  0  0  0  0
   43.5035   -4.1478   44.7912 H   0  0  0  0  0  0  0  0  0  0  0  0
   37.8498   -4.2331   43.0947 H   0  0  0  0  0  0  0  0  0  0  0  0
   36.3260   -4.2975   41.2983 H   0  0  0  0  0  0  0  0  0  0  0  0
   40.2872   -6.8887   41.1140 H   0  0  0  0  0  0  0  0  0  0  0  0
   40.4579   -8.8296   39.9379 H   0  0  0  0  0  0  0  0  0  0  0  0
   41.2660   -7.7157   39.0476 H   0  0  0  0  0  0  0  0  0  0  0  0
   39.8869   -9.6412   37.5172 H   0  0  0  0  0  0  0  0  0  0  0  0
   41.1868  -10.2081   38.3997 H   0  0  0  0  0  0  0  0  0  0  0  0
   41.2233   -8.6287   36.1988 H   0  0  0  0  0  0  0  0  0  0  0  0
   43.2009   -8.2511   38.1031 H   0  0  0  0  0  0  0  0  0  0  0  0
   42.0832   -7.1309   37.6544 H   0  0  0  0  0  0  0  0  0  0  0  0
   44.2010   -6.7181   36.5869 H   0  0  0  0  0  0  0  0  0  0  0  0
   43.0205   -7.0007   35.4943 H   0  0  0  0  0  0  0  0  0  0  0  0
   44.9439   -8.9839   36.3757 H   0  0  0  0  0  0  0  0  0  0  0  0
   43.9393  -10.4411   34.7713 H   0  0  0  0  0  0  0  0  0  0  0  0
   42.8558   -9.2784   34.3886 H   0  0  0  0  0  0  0  0  0  0  0  0
   41.8329  -10.8147   35.8907 H   0  0  0  0  0  0  0  0  0  0  0  0
   43.0464  -10.5704   36.9699 H   0  0  0  0  0  0  0  0  0  0  0  0
   39.6449   -8.3894   43.7294 H   0  0  0  0  0  0  0  0  0  0  0  0
   38.7917   -7.7794   44.9860 H   0  0  0  0  0  0  0  0  0  0  0  0
   41.2573   -9.0720   45.1450 H   0  0  0  0  0  0  0  0  0  0  0  0
   40.0561   -9.4603   45.8291 H   0  0  0  0  0  0  0  0  0  0  0  0
   41.4906   -8.5809   47.3945 H   0  0  0  0  0  0  0  0  0  0  0  0
   40.1560   -7.6487   47.2927 H   0  0  0  0  0  0  0  0  0  0  0  0
   41.8829   -6.1312   47.1552 H   0  0  0  0  0  0  0  0  0  0  0  0
   42.7313   -7.1288   46.1339 H   0  0  0  0  0  0  0  0  0  0  0  0
   42.9566   -1.1581   43.2166 H   0  0  0  0  0  0  0  0  0  0  0  0
  1  2  1  0  0  0  0
  1 49  1  0  0  0  0
  1 50  1  0  0  0  0
  1 51  1  0  0  0  0
  2  3  1  0  0  0  0
  3  4  2  0  0  0  0
  3  8  1  0  0  0  0
  4  5  1  0  0  0  0
  4 52  1  0  0  0  0
  5  6  2  0  0  0  0
  5 53  1  0  0  0  0
  6  7  1  0  0  0  0
  6  9  1  0  0  0  0
  7  8  2  0  0  0  0
  7 54  1  0  0  0  0
  8 55  1  0  0  0  0
  9 10  1  0  0  0  0
  9 14  1  0  0  0  0
  9 56  1  6  0  0  0
 10 11  1  0  0  0  0
 10 57  1  0  0  0  0
 10 58  1  0  0  0  0
 11 12  1  0  0  0  0
 11 59  1  0  0  0  0
 11 60  1  0  0  0  0
 12 13  1  0  0  0  0
 12 15  1  0  0  0  0
 12 61  1  6  0  0  0
 13 14  1  0  0  0  0
 13 62  1  0  0  0  0
 13 63  1  0  0  0  0
 14 64  1  0  0  0  0
 14 65  1  0  0  0  0
 15 16  1  0  0  0  0
 15 66  1  0  0  0  0
 15 67  1  0  0  0  0
 16 17  1  0  0  0  0
 16 47  1  0  0  0  0
 16 48  1  1  0  0  0
 17 18  1  0  0  0  0
 17 68  1  0  0  0  0
 17 69  1  0  0  0  0
 18 19  1  0  0  0  0
 18 22  1  0  0  0  0
 19 20  2  0  0  0  0
 19 46  1  0  0  0  0
 20 21  1  0  0  0  0
 20 43  1  0  0  0  0
 21 22  2  0  0  0  0
 21 23  1  0  0  0  0
 23 24  2  0  0  0  0
 23 28  1  0  0  0  0
 24 25  1  0  0  0  0
 24 70  1  0  0  0  0
 25 26  2  0  0  0  0
 25 71  1  0  0  0  0
 26 27  1  0  0  0  0
 26 39  1  0  0  0  0
 27 28  2  0  0  0  0
 27 29  1  0  0  0  0
 28 72  1  0  0  0  0
 29 30  1  0  0  0  0
 30 31  1  0  0  0  0
 30 73  1  0  0  0  0
 30 74  1  0  0  0  0
 31 32  1  0  0  0  0
 31 75  1  0  0  0  0
 31 76  1  0  0  0  0
 32 33  1  0  0  0  0
 32 37  1  0  0  0  0
 32 77  1  6  0  0  0
 33 34  1  0  0  0  0
 33 78  1  0  0  0  0
 33 79  1  0  0  0  0
 34 35  1  0  0  0  0
 34 80  1  0  0  0  0
 34 81  1  0  0  0  0
 35 36  1  0  0  0  0
 35 38  1  0  0  0  0
 35 82  1  1  0  0  0
 36 37  1  0  0  0  0
 36 83  1  0  0  0  0
 36 84  1  0  0  0  0
 37 85  1  0  0  0  0
 37 86  1  0  0  0  0
 39 40  1  0  0  0  0
 39 41  1  0  0  0  0
 39 42  1  0  0  0  0
 43 44  1  0  0  0  0
 43 87  1  0  0  0  0
 43 88  1  0  0  0  0
 44 45  1  0  0  0  0
 44 89  1  0  0  0  0
 44 90  1  0  0  0  0
 45 46  1  0  0  0  0
 45 91  1  0  0  0  0
 45 92  1  0  0  0  0
 46 93  1  0  0  0  0
 46 94  1  0  0  0  0
 47 95  1  0  0  0  0
M  CHG  3  12   1  32   1  44   1
M  END
