CatS_311:1_D
 OpenBabel12041818463D

 85 90  0  0  1  0  0  0  0  0999 V2000
   36.0794   -7.5024   38.0371 C   0  0  0  0  0  0  0  0  0  0  0  0
   36.1815   -6.0633   38.5888 C   0  0  1  0  0  0  0  0  0  0  0  0
   35.0903   -5.8568   39.6599 C   0  0  0  0  0  0  0  0  0  0  0  0
   35.1336   -4.5137   40.1808 O   0  0  0  0  0  0  0  0  0  0  0  0
   36.3806   -4.2188   40.8378 C   0  0  0  0  0  0  0  0  0  0  0  0
   37.5683   -4.3662   39.8671 C   0  0  0  0  0  0  0  0  0  0  0  0
   37.5289   -5.7187   39.1908 N   0  3  1  0  0  0  0  0  0  0  0  0
   38.1113   -6.8375   40.0227 C   0  0  0  0  0  0  0  0  0  0  0  0
   39.3759   -6.4208   40.7991 C   0  0  0  0  0  0  0  0  0  0  0  0
   39.0223   -6.0799   42.2585 C   0  0  0  0  0  0  0  0  0  0  0  0
   40.0550   -5.7429   43.2562 N   0  0  0  0  0  0  0  0  0  0  0  0
   40.5764   -6.4236   44.3176 C   0  0  0  0  0  0  0  0  0  0  0  0
   41.5983   -5.7872   44.8963 C   0  0  0  0  0  0  0  0  0  0  0  0
   41.7062   -4.5916   44.1474 C   0  0  0  0  0  0  0  0  0  0  0  0
   40.7858   -4.6046   43.2094 N   0  0  0  0  0  0  0  0  0  0  0  0
   42.6461   -3.4942   44.3030 C   0  0  0  0  0  0  0  0  0  0  0  0
   42.3302   -2.4688   45.1808 C   0  0  0  0  0  0  0  0  0  0  0  0
   43.1984   -1.4213   45.3806 C   0  0  0  0  0  0  0  0  0  0  0  0
   44.3871   -1.3680   44.6969 C   0  0  0  0  0  0  0  0  0  0  0  0
   44.7248   -2.3822   43.8028 C   0  0  0  0  0  0  0  0  0  0  0  0
   43.8497   -3.4517   43.6200 C   0  0  0  0  0  0  0  0  0  0  0  0
   45.9776   -2.2728   43.0959 C   0  0  0  0  0  0  0  0  0  0  0  0
   47.0148   -2.2159   42.4526 C   0  0  0  0  0  0  0  0  0  0  0  0
   48.2122   -2.1789   41.6504 C   0  0  0  0  0  0  0  0  0  0  0  0
   49.4625   -1.9259   42.2056 C   0  0  0  0  0  0  0  0  0  0  0  0
   50.5746   -1.9045   41.4013 C   0  0  0  0  0  0  0  0  0  0  0  0
   50.4638   -2.1298   40.0433 C   0  0  0  0  0  0  0  0  0  0  0  0
   49.2221   -2.3823   39.4847 C   0  0  0  0  0  0  0  0  0  0  0  0
   48.1070   -2.4052   40.2825 C   0  0  0  0  0  0  0  0  0  0  0  0
   49.0459   -2.6213   37.9894 C   0  0  0  0  0  0  0  0  0  0  0  0
   50.3368   -2.9740   37.2944 N   0  3  1  0  0  0  0  0  0  0  0  0
   51.4638   -2.0485   37.6671 C   0  0  0  0  0  0  0  0  0  0  0  0
   51.7236   -2.1120   39.1876 C   0  0  0  0  0  0  0  0  0  0  0  0
   50.6995   -4.4188   37.4880 C   0  0  0  0  0  0  0  0  0  0  0  0
   45.4623   -0.0206   44.9529 Cl  0  0  0  0  0  0  0  0  0  0  0  0
   42.3516   -6.3449   46.1046 C   0  0  0  0  0  0  0  0  0  0  0  0
   42.1259   -7.7907   46.3483 N   0  0  0  0  0  0  0  0  0  0  0  0
   40.6735   -8.0628   46.2693 C   0  0  0  0  0  0  0  0  0  0  0  0
   40.1119   -7.7680   44.8573 C   0  0  0  0  0  0  0  0  0  0  0  0
   42.9698   -8.4281   47.6031 S   0  0  0  0  0  0  0  0  0  0  0  0
   44.3634   -8.1776   47.4095 O   0  0  0  0  0  0  0  0  0  0  0  0
   42.6776   -9.8258   47.6717 O   0  0  0  0  0  0  0  0  0  0  0  0
   42.4554   -7.6728   49.1740 C   0  0  0  0  0  0  0  0  0  0  0  0
   36.0580   -5.4545   37.8052 H   0  0  0  0  0  0  0  0  0  0  0  0
   35.4081   -7.5201   37.2961 H   0  0  0  0  0  0  0  0  0  0  0  0
   36.9707   -7.7956   37.6912 H   0  0  0  0  0  0  0  0  0  0  0  0
   35.7933   -8.1232   38.7669 H   0  0  0  0  0  0  0  0  0  0  0  0
   35.2345   -6.5059   40.4068 H   0  0  0  0  0  0  0  0  0  0  0  0
   34.1955   -6.0080   39.2395 H   0  0  0  0  0  0  0  0  0  0  0  0
   36.5034   -4.8475   41.6058 H   0  0  0  0  0  0  0  0  0  0  0  0
   36.3526   -3.2732   41.1618 H   0  0  0  0  0  0  0  0  0  0  0  0
   38.4247   -4.2732   40.3748 H   0  0  0  0  0  0  0  0  0  0  0  0
   37.5078   -3.6529   39.1688 H   0  0  0  0  0  0  0  0  0  0  0  0
   38.0887   -5.6391   38.4743 H   0  0  0  0  0  0  0  0  0  0  0  0
   38.3434   -7.5984   39.4168 H   0  0  0  0  0  0  0  0  0  0  0  0
   37.4208   -7.0961   40.6982 H   0  0  0  0  0  0  0  0  0  0  0  0
   39.7845   -5.6202   40.3608 H   0  0  0  0  0  0  0  0  0  0  0  0
   40.0250   -7.1815   40.7933 H   0  0  0  0  0  0  0  0  0  0  0  0
   38.5287   -6.8709   42.6199 H   0  0  0  0  0  0  0  0  0  0  0  0
   38.5386   -5.2104   42.1585 H   0  0  0  0  0  0  0  0  0  0  0  0
   41.4608   -2.4911   45.6745 H   0  0  0  0  0  0  0  0  0  0  0  0
   42.9626   -0.6954   46.0267 H   0  0  0  0  0  0  0  0  0  0  0  0
   44.0923   -4.1917   42.9927 H   0  0  0  0  0  0  0  0  0  0  0  0
   49.5508   -1.7600   43.1878 H   0  0  0  0  0  0  0  0  0  0  0  0
   51.4729   -1.7242   41.8021 H   0  0  0  0  0  0  0  0  0  0  0  0
   47.2108   -2.5861   39.8773 H   0  0  0  0  0  0  0  0  0  0  0  0
   48.6736   -1.7914   37.5739 H   0  0  0  0  0  0  0  0  0  0  0  0
   48.4267   -3.3991   37.8813 H   0  0  0  0  0  0  0  0  0  0  0  0
   50.1994   -2.8582   36.4000 H   0  0  0  0  0  0  0  0  0  0  0  0
   51.2239   -1.1126   37.4090 H   0  0  0  0  0  0  0  0  0  0  0  0
   52.2921   -2.3310   37.1832 H   0  0  0  0  0  0  0  0  0  0  0  0
   52.2474   -2.9413   39.3831 H   0  0  0  0  0  0  0  0  0  0  0  0
   52.2173   -1.2756   39.4257 H   0  0  0  0  0  0  0  0  0  0  0  0
   50.6974   -4.8770   36.5993 H   0  0  0  0  0  0  0  0  0  0  0  0
   51.6082   -4.4867   37.8999 H   0  0  0  0  0  0  0  0  0  0  0  0
   50.0341   -4.8546   38.0943 H   0  0  0  0  0  0  0  0  0  0  0  0
   42.0625   -5.8387   46.9171 H   0  0  0  0  0  0  0  0  0  0  0  0
   43.3264   -6.2367   45.9099 H   0  0  0  0  0  0  0  0  0  0  0  0
   40.1980   -7.4890   46.9363 H   0  0  0  0  0  0  0  0  0  0  0  0
   40.5269   -9.0323   46.4656 H   0  0  0  0  0  0  0  0  0  0  0  0
   40.4133   -8.4881   44.2323 H   0  0  0  0  0  0  0  0  0  0  0  0
   39.1147   -7.7404   44.9267 H   0  0  0  0  0  0  0  0  0  0  0  0
   42.0739   -8.3820   49.7667 H   0  0  0  0  0  0  0  0  0  0  0  0
   43.2443   -7.2497   49.6195 H   0  0  0  0  0  0  0  0  0  0  0  0
   41.7649   -6.9708   48.9996 H   0  0  0  0  0  0  0  0  0  0  0  0
  1  2  1  0  0  0  0
  1 45  1  0  0  0  0
  1 46  1  0  0  0  0
  1 47  1  0  0  0  0
  2  3  1  0  0  0  0
  2  7  1  0  0  0  0
  2 44  1  6  0  0  0
  3  4  1  0  0  0  0
  3 48  1  0  0  0  0
  3 49  1  0  0  0  0
  4  5  1  0  0  0  0
  5  6  1  0  0  0  0
  5 50  1  0  0  0  0
  5 51  1  0  0  0  0
  6  7  1  0  0  0  0
  6 52  1  0  0  0  0
  6 53  1  0  0  0  0
  7  8  1  0  0  0  0
  7 54  1  6  0  0  0
  8  9  1  0  0  0  0
  8 55  1  0  0  0  0
  8 56  1  0  0  0  0
  9 10  1  0  0  0  0
  9 57  1  0  0  0  0
  9 58  1  0  0  0  0
 10 11  1  0  0  0  0
 10 59  1  0  0  0  0
 10 60  1  0  0  0  0
 11 12  1  0  0  0  0
 11 15  1  0  0  0  0
 12 13  2  0  0  0  0
 12 39  1  0  0  0  0
 13 14  1  0  0  0  0
 13 36  1  0  0  0  0
 14 15  2  0  0  0  0
 14 16  1  0  0  0  0
 16 17  2  0  0  0  0
 16 21  1  0  0  0  0
 17 18  1  0  0  0  0
 17 61  1  0  0  0  0
 18 19  2  0  0  0  0
 18 62  1  0  0  0  0
 19 20  1  0  0  0  0
 19 35  1  0  0  0  0
 20 21  2  0  0  0  0
 20 22  1  0  0  0  0
 21 63  1  0  0  0  0
 22 23  3  0  0  0  0
 23 24  1  0  0  0  0
 24 25  2  0  0  0  0
 24 29  1  0  0  0  0
 25 26  1  0  0  0  0
 25 64  1  0  0  0  0
 26 27  2  0  0  0  0
 26 65  1  0  0  0  0
 27 28  1  0  0  0  0
 27 33  1  0  0  0  0
 28 29  2  0  0  0  0
 28 30  1  0  0  0  0
 29 66  1  0  0  0  0
 30 31  1  0  0  0  0
 30 67  1  0  0  0  0
 30 68  1  0  0  0  0
 31 32  1  0  0  0  0
 31 34  1  0  0  0  0
 31 69  1  6  0  0  0
 32 33  1  0  0  0  0
 32 70  1  0  0  0  0
 32 71  1  0  0  0  0
 33 72  1  0  0  0  0
 33 73  1  0  0  0  0
 34 74  1  0  0  0  0
 34 75  1  0  0  0  0
 34 76  1  0  0  0  0
 36 37  1  0  0  0  0
 36 77  1  0  0  0  0
 36 78  1  0  0  0  0
 37 38  1  0  0  0  0
 37 40  1  0  0  0  0
 38 39  1  0  0  0  0
 38 79  1  0  0  0  0
 38 80  1  0  0  0  0
 39 81  1  0  0  0  0
 39 82  1  0  0  0  0
 40 41  2  0  0  0  0
 40 42  2  0  0  0  0
 40 43  1  0  0  0  0
 43 83  1  0  0  0  0
 43 84  1  0  0  0  0
 43 85  1  0  0  0  0
M  CHG  2   7   1  31   1
M  END
