CatS_273:1_D
 OpenBabel12041818463D

 88 92  0  0  1  0  0  0  0  0999 V2000
   49.5288   -3.1371   37.9857 C   0  0  0  0  0  0  0  0  0  0  0  0
   48.4907   -3.8050   38.9088 C   0  0  2  0  0  0  0  0  0  0  0  0
   47.0513   -3.4356   38.4653 C   0  0  0  0  0  0  0  0  0  0  0  0
   46.5736   -2.0456   38.9496 C   0  0  0  0  0  0  0  0  0  0  0  0
   46.7823   -1.9363   40.4359 N   0  3  1  0  0  0  0  0  0  0  0  0
   48.2354   -2.0499   40.8070 C   0  0  0  0  0  0  0  0  0  0  0  0
   48.7622   -3.4434   40.3916 C   0  0  0  0  0  0  0  0  0  0  0  0
   46.0398   -0.8054   41.1098 C   0  0  0  0  0  0  0  0  0  0  0  0
   46.4234   -0.4515   42.5636 C   0  0  0  0  0  0  0  0  0  0  0  0
   46.1682   -1.9397   43.5860 S   0  0  0  0  0  0  0  0  0  0  0  0
   44.6474   -2.2296   44.5191 C   0  0  0  0  0  0  0  0  0  0  0  0
   43.8482   -3.2625   44.0600 C   0  0  0  0  0  0  0  0  0  0  0  0
   42.6101   -3.5404   44.6225 C   0  0  0  0  0  0  0  0  0  0  0  0
   42.2171   -2.7730   45.7028 C   0  0  0  0  0  0  0  0  0  0  0  0
   43.0194   -1.7599   46.1732 C   0  0  0  0  0  0  0  0  0  0  0  0
   44.2335   -1.4475   45.5948 C   0  0  0  0  0  0  0  0  0  0  0  0
   44.8952   -0.2262   46.2380 C   0  0  0  0  0  0  0  0  0  0  0  0
   46.1735   -0.5530   46.6693 F   0  0  0  0  0  0  0  0  0  0  0  0
   45.0569    0.8450   45.3612 F   0  0  0  0  0  0  0  0  0  0  0  0
   44.1896    0.2891   47.3120 F   0  0  0  0  0  0  0  0  0  0  0  0
   41.7069   -4.5834   44.1389 C   0  0  0  0  0  0  0  0  0  0  0  0
   41.5028   -5.8743   44.6925 C   0  0  0  0  0  0  0  0  0  0  0  0
   40.5536   -6.3976   43.9175 C   0  0  0  0  0  0  0  0  0  0  0  0
   40.1642   -5.5735   42.9191 N   0  0  0  0  0  0  0  0  0  0  0  0
   40.8992   -4.4422   43.0982 N   0  0  0  0  0  0  0  0  0  0  0  0
   39.0711   -5.7955   41.9577 C   0  0  0  0  0  0  0  0  0  0  0  0
   37.9913   -4.8503   41.4029 C   0  0  2  0  0  0  0  0  0  0  0  0
   37.9367   -4.9422   39.8535 C   0  0  0  0  0  0  0  0  0  0  0  0
   36.5676   -4.7841   39.2200 N   0  3  0  0  0  0  0  0  0  0  0  0
   35.4504   -5.2583   40.1180 C   0  0  0  0  0  0  0  0  0  0  0  0
   35.4068   -6.8022   40.1499 C   0  0  0  0  0  0  0  0  0  0  0  0
   35.3281   -7.3533   38.8202 O   0  0  0  0  0  0  0  0  0  0  0  0
   36.4383   -6.9502   37.9981 C   0  0  0  0  0  0  0  0  0  0  0  0
   36.4531   -5.4160   37.8516 C   0  0  0  0  0  0  0  0  0  0  0  0
   38.2368   -3.4949   41.8046 O   0  0  0  0  0  0  0  0  0  0  0  0
   39.9639   -7.7721   44.1615 C   0  0  0  0  0  0  0  0  0  0  0  0
   40.2445   -8.2233   45.6092 C   0  0  0  0  0  0  0  0  0  0  0  0
   41.6678   -8.0739   45.9771 N   0  0  0  0  0  0  0  0  0  0  0  0
   42.0549   -6.6405   45.8986 C   0  0  0  0  0  0  0  0  0  0  0  0
   42.1156   -8.9657   47.2694 S   0  0  0  0  0  0  0  0  0  0  0  0
   41.7142  -10.3172   47.0670 O   0  0  0  0  0  0  0  0  0  0  0  0
   43.5273   -8.8352   47.4037 O   0  0  0  0  0  0  0  0  0  0  0  0
   41.3263   -8.3406   48.7802 C   0  0  0  0  0  0  0  0  0  0  0  0
   48.6398   -5.2277   38.7781 O   0  0  0  0  0  0  0  0  0  0  0  0
   37.1096   -5.1357   41.7787 H   0  0  0  0  0  0  0  0  0  0  0  0
   50.0549   -3.8482   37.5191 H   0  0  0  0  0  0  0  0  0  0  0  0
   49.0624   -2.5656   37.3106 H   0  0  0  0  0  0  0  0  0  0  0  0
   50.1428   -2.5641   38.5287 H   0  0  0  0  0  0  0  0  0  0  0  0
   46.4244   -4.1275   38.8234 H   0  0  0  0  0  0  0  0  0  0  0  0
   47.0592   -3.4024   37.4659 H   0  0  0  0  0  0  0  0  0  0  0  0
   45.6031   -1.9318   38.7369 H   0  0  0  0  0  0  0  0  0  0  0  0
   47.0984   -1.3316   38.4860 H   0  0  0  0  0  0  0  0  0  0  0  0
   46.3902   -2.6850   40.7785 H   0  0  0  0  0  0  0  0  0  0  0  0
   48.3397   -1.9314   41.7945 H   0  0  0  0  0  0  0  0  0  0  0  0
   48.7582   -1.3410   40.3336 H   0  0  0  0  0  0  0  0  0  0  0  0
   49.7498   -3.4678   40.5468 H   0  0  0  0  0  0  0  0  0  0  0  0
   48.2703   -4.1139   40.9470 H   0  0  0  0  0  0  0  0  0  0  0  0
   45.0680   -1.0414   41.1052 H   0  0  0  0  0  0  0  0  0  0  0  0
   46.2892    0.0067   40.5823 H   0  0  0  0  0  0  0  0  0  0  0  0
   45.8483    0.2957   42.8965 H   0  0  0  0  0  0  0  0  0  0  0  0
   47.3777   -0.1564   42.6107 H   0  0  0  0  0  0  0  0  0  0  0  0
   44.1726   -3.8255   43.2999 H   0  0  0  0  0  0  0  0  0  0  0  0
   41.3400   -2.9564   46.1468 H   0  0  0  0  0  0  0  0  0  0  0  0
   42.7119   -1.2298   46.9635 H   0  0  0  0  0  0  0  0  0  0  0  0
   38.5472   -6.5450   42.3625 H   0  0  0  0  0  0  0  0  0  0  0  0
   39.6408   -5.8138   41.1361 H   0  0  0  0  0  0  0  0  0  0  0  0
   38.2972   -5.8361   39.5868 H   0  0  0  0  0  0  0  0  0  0  0  0
   38.4744   -4.1674   39.5210 H   0  0  0  0  0  0  0  0  0  0  0  0
   36.4328   -3.8888   39.1135 H   0  0  0  0  0  0  0  0  0  0  0  0
   34.5786   -4.9081   39.7753 H   0  0  0  0  0  0  0  0  0  0  0  0
   35.6123   -4.9195   41.0448 H   0  0  0  0  0  0  0  0  0  0  0  0
   34.6077   -7.0960   40.6743 H   0  0  0  0  0  0  0  0  0  0  0  0
   36.2490   -7.1321   40.5766 H   0  0  0  0  0  0  0  0  0  0  0  0
   36.3541   -7.3712   37.0950 H   0  0  0  0  0  0  0  0  0  0  0  0
   37.2909   -7.2468   38.4283 H   0  0  0  0  0  0  0  0  0  0  0  0
   37.2315   -5.1392   37.2882 H   0  0  0  0  0  0  0  0  0  0  0  0
   35.6063   -5.1146   37.4137 H   0  0  0  0  0  0  0  0  0  0  0  0
   38.3246   -3.4193   42.8038 H   0  0  0  0  0  0  0  0  0  0  0  0
   40.3718   -8.4258   43.5242 H   0  0  0  0  0  0  0  0  0  0  0  0
   38.9748   -7.7321   44.0196 H   0  0  0  0  0  0  0  0  0  0  0  0
   39.9843   -9.1842   45.7042 H   0  0  0  0  0  0  0  0  0  0  0  0
   39.7089   -7.6406   46.2205 H   0  0  0  0  0  0  0  0  0  0  0  0
   41.7320   -6.1856   46.7286 H   0  0  0  0  0  0  0  0  0  0  0  0
   43.0498   -6.6310   45.7980 H   0  0  0  0  0  0  0  0  0  0  0  0
   42.0351   -8.0266   49.4117 H   0  0  0  0  0  0  0  0  0  0  0  0
   40.7168   -7.5809   48.5532 H   0  0  0  0  0  0  0  0  0  0  0  0
   40.7920   -9.0700   49.2074 H   0  0  0  0  0  0  0  0  0  0  0  0
   47.8914   -5.6272   38.2374 H   0  0  0  0  0  0  0  0  0  0  0  0
  1 46  1  0  0  0  0
  1 47  1  0  0  0  0
  1 48  1  0  0  0  0
  2  1  1  6  0  0  0
  2  3  1  0  0  0  0
  2  7  1  0  0  0  0
  2 44  1  0  0  0  0
  3  4  1  0  0  0  0
  3 49  1  0  0  0  0
  3 50  1  0  0  0  0
  4  5  1  0  0  0  0
  4 51  1  0  0  0  0
  4 52  1  0  0  0  0
  5  6  1  0  0  0  0
  5  8  1  0  0  0  0
  5 53  1  1  0  0  0
  6  7  1  0  0  0  0
  6 54  1  0  0  0  0
  6 55  1  0  0  0  0
  7 56  1  0  0  0  0
  7 57  1  0  0  0  0
  8  9  1  0  0  0  0
  8 58  1  0  0  0  0
  8 59  1  0  0  0  0
  9 10  1  0  0  0  0
  9 60  1  0  0  0  0
  9 61  1  0  0  0  0
 10 11  1  0  0  0  0
 11 12  2  0  0  0  0
 11 16  1  0  0  0  0
 12 13  1  0  0  0  0
 12 62  1  0  0  0  0
 13 14  2  0  0  0  0
 13 21  1  0  0  0  0
 14 15  1  0  0  0  0
 14 63  1  0  0  0  0
 15 16  2  0  0  0  0
 15 64  1  0  0  0  0
 16 17  1  0  0  0  0
 17 18  1  0  0  0  0
 17 19  1  0  0  0  0
 17 20  1  0  0  0  0
 21 22  1  0  0  0  0
 21 25  2  0  0  0  0
 22 23  2  0  0  0  0
 22 39  1  0  0  0  0
 23 24  1  0  0  0  0
 23 36  1  0  0  0  0
 24 25  1  0  0  0  0
 24 26  1  0  0  0  0
 26 27  1  0  0  0  0
 26 65  1  0  0  0  0
 26 66  1  0  0  0  0
 27 28  1  0  0  0  0
 27 35  1  0  0  0  0
 27 45  1  1  0  0  0
 28 29  1  0  0  0  0
 28 67  1  0  0  0  0
 28 68  1  0  0  0  0
 29 30  1  0  0  0  0
 29 34  1  0  0  0  0
 29 69  1  0  0  0  0
 30 31  1  0  0  0  0
 30 70  1  0  0  0  0
 30 71  1  0  0  0  0
 31 32  1  0  0  0  0
 31 72  1  0  0  0  0
 31 73  1  0  0  0  0
 32 33  1  0  0  0  0
 33 34  1  0  0  0  0
 33 74  1  0  0  0  0
 33 75  1  0  0  0  0
 34 76  1  0  0  0  0
 34 77  1  0  0  0  0
 35 78  1  0  0  0  0
 36 37  1  0  0  0  0
 36 79  1  0  0  0  0
 36 80  1  0  0  0  0
 37 38  1  0  0  0  0
 37 81  1  0  0  0  0
 37 82  1  0  0  0  0
 38 39  1  0  0  0  0
 38 40  1  0  0  0  0
 39 83  1  0  0  0  0
 39 84  1  0  0  0  0
 40 41  2  0  0  0  0
 40 42  2  0  0  0  0
 40 43  1  0  0  0  0
 43 85  1  0  0  0  0
 43 86  1  0  0  0  0
 43 87  1  0  0  0  0
 44 88  1  0  0  0  0
M  CHG  2   5   1  29   1
M  END
