CatS_324:1_D
 OpenBabel12041818463D

 99105  0  0  1  0  0  0  0  0999 V2000
   51.8751   -8.0287   33.2023 C   0  0  0  0  0  0  0  0  0  0  0  0
   52.0722   -7.1870   34.4306 N   0  3  2  0  0  0  0  0  0  0  0  0
   50.7948   -6.9971   35.2004 C   0  0  0  0  0  0  0  0  0  0  0  0
   51.0770   -6.2520   36.5204 C   0  0  0  0  0  0  0  0  0  0  0  0
   51.8456   -5.0001   36.3085 N   0  0  0  0  0  0  0  0  0  0  0  0
   53.0253   -5.1145   35.4299 C   0  0  0  0  0  0  0  0  0  0  0  0
   52.7457   -5.8789   34.1214 C   0  0  0  0  0  0  0  0  0  0  0  0
   51.5954   -3.8117   36.9099 C   0  0  0  0  0  0  0  0  0  0  0  0
   52.2236   -2.7879   36.6746 O   0  0  0  0  0  0  0  0  0  0  0  0
   50.4830   -3.8038   37.9453 C   0  0  2  0  0  0  0  0  0  0  0  0
   49.4074   -2.7295   37.6378 C   0  0  0  0  0  0  0  0  0  0  0  0
   48.4491   -2.4387   38.7909 C   0  0  0  0  0  0  0  0  0  0  0  0
   47.2728   -1.7485   38.5595 C   0  0  0  0  0  0  0  0  0  0  0  0
   46.3973   -1.4797   39.5857 C   0  0  0  0  0  0  0  0  0  0  0  0
   46.6996   -1.9121   40.8727 C   0  0  0  0  0  0  0  0  0  0  0  0
   47.8862   -2.5960   41.1011 C   0  0  0  0  0  0  0  0  0  0  0  0
   48.7537   -2.8534   40.0762 C   0  0  0  0  0  0  0  0  0  0  0  0
   50.0257   -3.6169   40.4132 C   0  0  0  0  0  0  0  0  0  0  0  0
   51.0382   -3.4854   39.3086 N   0  3  0  0  0  0  0  0  0  0  0  0
   45.8643   -1.7327   42.0322 C   0  0  0  0  0  0  0  0  0  0  0  0
   45.1204   -1.7486   42.9995 C   0  0  0  0  0  0  0  0  0  0  0  0
   44.2156   -1.9853   44.0951 C   0  0  0  0  0  0  0  0  0  0  0  0
   43.6376   -3.2455   44.0712 C   0  0  0  0  0  0  0  0  0  0  0  0
   42.7447   -3.6615   45.0306 C   0  0  0  0  0  0  0  0  0  0  0  0
   42.4232   -2.7654   46.0430 C   0  0  0  0  0  0  0  0  0  0  0  0
   42.9938   -1.5070   46.0840 C   0  0  0  0  0  0  0  0  0  0  0  0
   43.8919   -1.1016   45.1213 C   0  0  0  0  0  0  0  0  0  0  0  0
   44.6115    0.4810   45.1903 Cl  0  0  0  0  0  0  0  0  0  0  0  0
   42.1999   -5.0112   44.9484 C   0  0  0  0  0  0  0  0  0  0  0  0
   41.2671   -5.5143   44.0102 C   0  0  0  0  0  0  0  0  0  0  0  0
   41.1702   -6.8059   44.3203 C   0  0  0  0  0  0  0  0  0  0  0  0
   41.8973   -7.1461   45.4166 N   0  0  0  0  0  0  0  0  0  0  0  0
   42.5321   -5.9948   45.7618 N   0  0  0  0  0  0  0  0  0  0  0  0
   42.0086   -8.4166   46.1541 C   0  0  0  0  0  0  0  0  0  0  0  0
   40.9844   -8.7037   47.2791 C   0  0  0  0  0  0  0  0  0  0  0  0
   39.7191   -9.3771   46.7089 C   0  0  0  0  0  0  0  0  0  0  0  0
   39.9166  -10.5685   45.8069 N   0  3  0  0  0  0  0  0  0  0  0  0
   38.7088  -10.8740   44.9519 C   0  0  0  0  0  0  0  0  0  0  0  0
   38.9262  -12.1721   44.1504 C   0  0  0  0  0  0  0  0  0  0  0  0
   39.2685  -13.2594   45.0299 O   0  0  0  0  0  0  0  0  0  0  0  0
   40.4989  -13.0176   45.7355 C   0  0  0  0  0  0  0  0  0  0  0  0
   40.3683  -11.7612   46.6148 C   0  0  0  0  0  0  0  0  0  0  0  0
   40.3136   -7.7061   43.4497 C   0  0  0  0  0  0  0  0  0  0  0  0
   39.0766   -6.9034   42.9964 C   0  0  0  0  0  0  0  0  0  0  0  0
   39.4734   -5.7498   42.1583 N   0  0  0  0  0  0  0  0  0  0  0  0
   40.4549   -4.8934   42.8760 C   0  0  0  0  0  0  0  0  0  0  0  0
   38.3022   -4.9982   41.3075 S   0  0  0  0  0  0  0  0  0  0  0  0
   37.5545   -6.0079   40.6350 O   0  0  0  0  0  0  0  0  0  0  0  0
   38.9266   -4.0144   40.4864 O   0  0  0  0  0  0  0  0  0  0  0  0
   37.1840   -4.1531   42.4614 C   0  0  0  0  0  0  0  0  0  0  0  0
   50.0706   -4.7144   37.9194 H   0  0  0  0  0  0  0  0  0  0  0  0
   52.4073   -8.8702   33.2954 H   0  0  0  0  0  0  0  0  0  0  0  0
   50.9061   -8.2528   33.0983 H   0  0  0  0  0  0  0  0  0  0  0  0
   52.1807   -7.5234   32.3953 H   0  0  0  0  0  0  0  0  0  0  0  0
   52.6384   -7.6527   34.9742 H   0  0  0  0  0  0  0  0  0  0  0  0
   50.3923   -7.8902   35.4014 H   0  0  0  0  0  0  0  0  0  0  0  0
   50.1589   -6.4560   34.6503 H   0  0  0  0  0  0  0  0  0  0  0  0
   51.5982   -6.8537   37.1256 H   0  0  0  0  0  0  0  0  0  0  0  0
   50.1968   -6.0038   36.9249 H   0  0  0  0  0  0  0  0  0  0  0  0
   53.7486   -5.5912   35.9295 H   0  0  0  0  0  0  0  0  0  0  0  0
   53.2927   -4.1854   35.1746 H   0  0  0  0  0  0  0  0  0  0  0  0
   52.1527   -5.3293   33.5329 H   0  0  0  0  0  0  0  0  0  0  0  0
   53.6108   -6.0556   33.6521 H   0  0  0  0  0  0  0  0  0  0  0  0
   48.8702   -3.0400   36.8536 H   0  0  0  0  0  0  0  0  0  0  0  0
   49.9011   -1.8780   37.4606 H   0  0  0  0  0  0  0  0  0  0  0  0
   47.0561   -1.4405   37.6332 H   0  0  0  0  0  0  0  0  0  0  0  0
   45.5508   -0.9779   39.4078 H   0  0  0  0  0  0  0  0  0  0  0  0
   48.1089   -2.9038   42.0261 H   0  0  0  0  0  0  0  0  0  0  0  0
   49.8044   -4.5832   40.5449 H   0  0  0  0  0  0  0  0  0  0  0  0
   50.4161   -3.2339   41.2505 H   0  0  0  0  0  0  0  0  0  0  0  0
   51.3996   -2.6531   39.3290 H   0  0  0  0  0  0  0  0  0  0  0  0
   51.7491   -4.0315   39.4739 H   0  0  0  0  0  0  0  0  0  0  0  0
   43.8784   -3.8732   43.3309 H   0  0  0  0  0  0  0  0  0  0  0  0
   41.7704   -3.0345   46.7511 H   0  0  0  0  0  0  0  0  0  0  0  0
   42.7506   -0.8807   46.8247 H   0  0  0  0  0  0  0  0  0  0  0  0
   42.9195   -8.4426   46.5660 H   0  0  0  0  0  0  0  0  0  0  0  0
   41.8214   -9.1183   45.4667 H   0  0  0  0  0  0  0  0  0  0  0  0
   40.7303   -7.8432   47.7206 H   0  0  0  0  0  0  0  0  0  0  0  0
   41.4034   -9.3223   47.9437 H   0  0  0  0  0  0  0  0  0  0  0  0
   39.2166   -8.6850   46.1907 H   0  0  0  0  0  0  0  0  0  0  0  0
   39.2389   -9.7388   47.5080 H   0  0  0  0  0  0  0  0  0  0  0  0
   40.6000  -10.3663   45.2395 H   0  0  0  0  0  0  0  0  0  0  0  0
   38.5523  -10.1161   44.3187 H   0  0  0  0  0  0  0  0  0  0  0  0
   37.9143  -10.9934   45.5473 H   0  0  0  0  0  0  0  0  0  0  0  0
   39.6661  -12.0335   43.4919 H   0  0  0  0  0  0  0  0  0  0  0  0
   38.0788  -12.4009   43.6715 H   0  0  0  0  0  0  0  0  0  0  0  0
   41.2393  -12.8872   45.0763 H   0  0  0  0  0  0  0  0  0  0  0  0
   40.7003  -13.8039   46.3196 H   0  0  0  0  0  0  0  0  0  0  0  0
   39.7021  -11.9363   47.3398 H   0  0  0  0  0  0  0  0  0  0  0  0
   41.2664  -11.5560   47.0038 H   0  0  0  0  0  0  0  0  0  0  0  0
   40.0265   -8.5098   43.9708 H   0  0  0  0  0  0  0  0  0  0  0  0
   40.8347   -8.0140   42.6537 H   0  0  0  0  0  0  0  0  0  0  0  0
   38.5860   -6.5723   43.8024 H   0  0  0  0  0  0  0  0  0  0  0  0
   38.4879   -7.5030   42.4542 H   0  0  0  0  0  0  0  0  0  0  0  0
   41.1053   -4.5523   42.1973 H   0  0  0  0  0  0  0  0  0  0  0  0
   39.8915   -4.2015   43.3276 H   0  0  0  0  0  0  0  0  0  0  0  0
   37.2267   -3.1682   42.2937 H   0  0  0  0  0  0  0  0  0  0  0  0
   36.2482   -4.4779   42.3239 H   0  0  0  0  0  0  0  0  0  0  0  0
   37.4611   -4.3479   43.4023 H   0  0  0  0  0  0  0  0  0  0  0  0
  1  2  1  0  0  0  0
  1 52  1  0  0  0  0
  1 53  1  0  0  0  0
  1 54  1  0  0  0  0
  2  3  1  0  0  0  0
  2  7  1  0  0  0  0
  2 55  1  1  0  0  0
  3  4  1  0  0  0  0
  3 56  1  0  0  0  0
  3 57  1  0  0  0  0
  4  5  1  0  0  0  0
  4 58  1  0  0  0  0
  4 59  1  0  0  0  0
  5  6  1  0  0  0  0
  5  8  1  0  0  0  0
  6  7  1  0  0  0  0
  6 60  1  0  0  0  0
  6 61  1  0  0  0  0
  7 62  1  0  0  0  0
  7 63  1  0  0  0  0
  8  9  2  0  0  0  0
  8 10  1  0  0  0  0
 10 11  1  0  0  0  0
 10 19  1  0  0  0  0
 10 51  1  1  0  0  0
 11 12  1  0  0  0  0
 11 64  1  0  0  0  0
 11 65  1  0  0  0  0
 12 13  2  0  0  0  0
 12 17  1  0  0  0  0
 13 14  1  0  0  0  0
 13 66  1  0  0  0  0
 14 15  2  0  0  0  0
 14 67  1  0  0  0  0
 15 16  1  0  0  0  0
 15 20  1  0  0  0  0
 16 17  2  0  0  0  0
 16 68  1  0  0  0  0
 17 18  1  0  0  0  0
 18 19  1  0  0  0  0
 18 69  1  0  0  0  0
 18 70  1  0  0  0  0
 19 71  1  0  0  0  0
 19 72  1  0  0  0  0
 20 21  3  0  0  0  0
 21 22  1  0  0  0  0
 22 23  2  0  0  0  0
 22 27  1  0  0  0  0
 23 24  1  0  0  0  0
 23 73  1  0  0  0  0
 24 25  2  0  0  0  0
 24 29  1  0  0  0  0
 25 26  1  0  0  0  0
 25 74  1  0  0  0  0
 26 27  2  0  0  0  0
 26 75  1  0  0  0  0
 27 28  1  0  0  0  0
 29 30  1  0  0  0  0
 29 33  2  0  0  0  0
 30 31  2  0  0  0  0
 30 46  1  0  0  0  0
 31 32  1  0  0  0  0
 31 43  1  0  0  0  0
 32 33  1  0  0  0  0
 32 34  1  0  0  0  0
 34 35  1  0  0  0  0
 34 76  1  0  0  0  0
 34 77  1  0  0  0  0
 35 36  1  0  0  0  0
 35 78  1  0  0  0  0
 35 79  1  0  0  0  0
 36 37  1  0  0  0  0
 36 80  1  0  0  0  0
 36 81  1  0  0  0  0
 37 38  1  0  0  0  0
 37 42  1  0  0  0  0
 37 82  1  0  0  0  0
 38 39  1  0  0  0  0
 38 83  1  0  0  0  0
 38 84  1  0  0  0  0
 39 40  1  0  0  0  0
 39 85  1  0  0  0  0
 39 86  1  0  0  0  0
 40 41  1  0  0  0  0
 41 42  1  0  0  0  0
 41 87  1  0  0  0  0
 41 88  1  0  0  0  0
 42 89  1  0  0  0  0
 42 90  1  0  0  0  0
 43 44  1  0  0  0  0
 43 91  1  0  0  0  0
 43 92  1  0  0  0  0
 44 45  1  0  0  0  0
 44 93  1  0  0  0  0
 44 94  1  0  0  0  0
 45 46  1  0  0  0  0
 45 47  1  0  0  0  0
 46 95  1  0  0  0  0
 46 96  1  0  0  0  0
 47 48  2  0  0  0  0
 47 49  2  0  0  0  0
 47 50  1  0  0  0  0
 50 97  1  0  0  0  0
 50 98  1  0  0  0  0
 50 99  1  0  0  0  0
M  CHG  3   2   1  19   1  37   1
M  END
