CatS_427:1_D
 OpenBabel12041818463D

 89 94  0  0  1  0  0  0  0  0999 V2000
   40.9639  -11.3703   47.4617 C   0  0  0  0  0  0  0  0  0  0  0  0
   40.8514  -12.6184   48.0162 C   0  0  0  0  0  0  0  0  0  0  0  0
   40.2015  -13.6336   47.3449 C   0  0  0  0  0  0  0  0  0  0  0  0
   39.6388  -13.4140   46.0856 C   0  0  0  0  0  0  0  0  0  0  0  0
   39.7595  -12.1492   45.5366 C   0  0  0  0  0  0  0  0  0  0  0  0
   40.4144  -11.1270   46.2082 C   0  0  0  0  0  0  0  0  0  0  0  0
   40.5185   -9.8286   45.5944 C   0  0  0  0  0  0  0  0  0  0  0  0
   40.5789   -8.7245   45.0791 C   0  0  0  0  0  0  0  0  0  0  0  0
   40.6096   -7.4146   44.4812 C   0  0  0  0  0  0  0  0  0  0  0  0
   41.4736   -6.4622   45.0073 C   0  0  0  0  0  0  0  0  0  0  0  0
   41.5385   -5.1918   44.4688 C   0  0  0  0  0  0  0  0  0  0  0  0
   40.7196   -4.8844   43.3933 C   0  0  0  0  0  0  0  0  0  0  0  0
   39.8592   -5.8221   42.8656 C   0  0  0  0  0  0  0  0  0  0  0  0
   39.7964   -7.0864   43.4000 C   0  0  0  0  0  0  0  0  0  0  0  0
   38.7043   -8.2640   42.7327 Cl  0  0  0  0  0  0  0  0  0  0  0  0
   42.4284   -4.1744   45.0064 C   0  0  0  0  0  0  0  0  0  0  0  0
   43.3462   -3.3346   44.3324 C   0  0  0  0  0  0  0  0  0  0  0  0
   43.8922   -2.6117   45.3161 C   0  0  0  0  0  0  0  0  0  0  0  0
   43.3959   -2.9303   46.5402 N   0  0  0  0  0  0  0  0  0  0  0  0
   42.4877   -3.8998   46.2911 N   0  0  0  0  0  0  0  0  0  0  0  0
   43.7685   -2.4828   47.8905 C   0  0  0  0  0  0  0  0  0  0  0  0
   42.6840   -2.5060   48.9908 C   0  0  0  0  0  0  0  0  0  0  0  0
   42.3919   -1.0988   49.5663 C   0  0  0  0  0  0  0  0  0  0  0  0
   41.0847   -0.5184   49.0812 N   0  3  0  0  0  0  0  0  0  0  0  0
   40.7188    0.7560   49.8073 C   0  0  0  0  0  0  0  0  0  0  0  0
   41.7250    1.8902   49.5382 C   0  0  0  0  0  0  0  0  0  0  0  0
   41.7014    2.3179   47.7796 S   0  0  0  0  0  0  0  0  0  0  0  0
   42.0792    0.6899   47.0832 C   0  0  0  0  0  0  0  0  0  0  0  0
   41.0646   -0.3586   47.5794 C   0  0  0  0  0  0  0  0  0  0  0  0
   44.9473   -1.5517   45.0496 C   0  0  0  0  0  0  0  0  0  0  0  0
   45.6894   -1.7948   43.7177 C   0  0  0  0  0  0  0  0  0  0  0  0
   44.7395   -2.1393   42.6394 N   0  0  0  0  0  0  0  0  0  0  0  0
   43.7287   -3.1939   42.8642 C   0  0  0  0  0  0  0  0  0  0  0  0
   44.7845   -1.5207   41.4445 C   0  0  0  0  0  0  0  0  0  0  0  0
   43.9876   -1.7032   40.5340 O   0  0  0  0  0  0  0  0  0  0  0  0
   45.8403   -0.5299   41.1309 C   0  0  0  0  0  0  0  0  0  0  0  0
   45.6610    0.6442   41.4208 O   0  0  0  0  0  0  0  0  0  0  0  0
   46.9280   -1.0077   40.5128 N   0  0  0  0  0  0  0  0  0  0  0  0
   38.9315  -14.4557   45.2892 C   0  0  0  0  0  0  0  0  0  0  0  0
   38.8614  -14.2643   44.0762 O   0  0  0  0  0  0  0  0  0  0  0  0
   38.3976  -15.5363   45.8973 N   0  0  0  0  0  0  0  0  0  0  0  0
   37.7867  -16.6181   45.1091 C   0  0  0  0  0  0  0  0  0  0  0  0
   36.2546  -16.6482   45.2544 C   0  0  2  0  0  0  0  0  0  0  0  0
   35.6123  -15.5385   44.3966 C   0  0  0  0  0  0  0  0  0  0  0  0
   35.3285  -14.3923   45.3767 C   0  0  0  0  0  0  0  0  0  0  0  0
   34.9580  -15.1532   46.6129 N   0  3  0  0  0  0  0  0  0  0  0  0
   35.8022  -16.3917   46.7097 C   0  0  0  0  0  0  0  0  0  0  0  0
   40.1291  -15.1914   48.1184 Cl  0  0  0  0  0  0  0  0  0  0  0  0
   35.9662  -17.5596   44.9609 H   0  0  0  0  0  0  0  0  0  0  0  0
   41.4376  -10.6406   47.9548 H   0  0  0  0  0  0  0  0  0  0  0  0
   41.2451  -12.7955   48.9183 H   0  0  0  0  0  0  0  0  0  0  0  0
   39.3658  -11.9680   44.6354 H   0  0  0  0  0  0  0  0  0  0  0  0
   42.0555   -6.6992   45.7853 H   0  0  0  0  0  0  0  0  0  0  0  0
   40.7538   -3.9680   42.9945 H   0  0  0  0  0  0  0  0  0  0  0  0
   39.2772   -5.5813   42.0890 H   0  0  0  0  0  0  0  0  0  0  0  0
   44.0956   -1.5410   47.8127 H   0  0  0  0  0  0  0  0  0  0  0  0
   44.4449   -3.1529   48.1962 H   0  0  0  0  0  0  0  0  0  0  0  0
   42.9913   -3.1012   49.7333 H   0  0  0  0  0  0  0  0  0  0  0  0
   41.8390   -2.8446   48.5768 H   0  0  0  0  0  0  0  0  0  0  0  0
   43.1341   -0.4842   49.2993 H   0  0  0  0  0  0  0  0  0  0  0  0
   42.3242   -1.1919   50.5596 H   0  0  0  0  0  0  0  0  0  0  0  0
   40.4422   -1.1346   49.2744 H   0  0  0  0  0  0  0  0  0  0  0  0
   40.6927    0.5720   50.7900 H   0  0  0  0  0  0  0  0  0  0  0  0
   39.8256    1.0543   49.4709 H   0  0  0  0  0  0  0  0  0  0  0  0
   42.6431    1.5914   49.7984 H   0  0  0  0  0  0  0  0  0  0  0  0
   41.4719    2.6934   50.0775 H   0  0  0  0  0  0  0  0  0  0  0  0
   43.0003    0.4173   47.3609 H   0  0  0  0  0  0  0  0  0  0  0  0
   42.0244    0.7444   46.0862 H   0  0  0  0  0  0  0  0  0  0  0  0
   40.1468   -0.0787   47.2977 H   0  0  0  0  0  0  0  0  0  0  0  0
   41.3180   -1.2384   47.1773 H   0  0  0  0  0  0  0  0  0  0  0  0
   45.6110   -1.5597   45.7976 H   0  0  0  0  0  0  0  0  0  0  0  0
   44.4862   -0.6666   44.9872 H   0  0  0  0  0  0  0  0  0  0  0  0
   46.3402   -2.5447   43.8359 H   0  0  0  0  0  0  0  0  0  0  0  0
   46.1697   -0.9556   43.4622 H   0  0  0  0  0  0  0  0  0  0  0  0
   42.9080   -2.9722   42.3376 H   0  0  0  0  0  0  0  0  0  0  0  0
   44.1281   -4.0625   42.5706 H   0  0  0  0  0  0  0  0  0  0  0  0
   46.9894   -1.8668   40.3322 H   0  0  0  0  0  0  0  0  0  0  0  0
   47.5810   -0.4628   40.2869 H   0  0  0  0  0  0  0  0  0  0  0  0
   38.4099  -15.6008   46.7739 H   0  0  0  0  0  0  0  0  0  0  0  0
   38.1594  -17.4933   45.4173 H   0  0  0  0  0  0  0  0  0  0  0  0
   37.9997  -16.4542   44.1458 H   0  0  0  0  0  0  0  0  0  0  0  0
   34.7649  -15.8631   43.9764 H   0  0  0  0  0  0  0  0  0  0  0  0
   36.2085  -15.2512   43.6469 H   0  0  0  0  0  0  0  0  0  0  0  0
   34.5768  -13.8141   45.0595 H   0  0  0  0  0  0  0  0  0  0  0  0
   36.0918  -13.7579   45.4991 H   0  0  0  0  0  0  0  0  0  0  0  0
   34.0795  -15.3903   46.5628 H   0  0  0  0  0  0  0  0  0  0  0  0
   35.0125  -14.6375   47.3619 H   0  0  0  0  0  0  0  0  0  0  0  0
   36.5896  -16.2430   47.3079 H   0  0  0  0  0  0  0  0  0  0  0  0
   35.3051  -17.1662   47.1011 H   0  0  0  0  0  0  0  0  0  0  0  0
  1  2  2  0  0  0  0
  1  6  1  0  0  0  0
  1 50  1  0  0  0  0
  2  3  1  0  0  0  0
  2 51  1  0  0  0  0
  3  4  2  0  0  0  0
  3 48  1  0  0  0  0
  4  5  1  0  0  0  0
  4 39  1  0  0  0  0
  5  6  2  0  0  0  0
  5 52  1  0  0  0  0
  6  7  1  0  0  0  0
  7  8  3  0  0  0  0
  8  9  1  0  0  0  0
  9 10  2  0  0  0  0
  9 14  1  0  0  0  0
 10 11  1  0  0  0  0
 10 53  1  0  0  0  0
 11 12  2  0  0  0  0
 11 16  1  0  0  0  0
 12 13  1  0  0  0  0
 12 54  1  0  0  0  0
 13 14  2  0  0  0  0
 13 55  1  0  0  0  0
 14 15  1  0  0  0  0
 16 17  1  0  0  0  0
 16 20  2  0  0  0  0
 17 18  2  0  0  0  0
 17 33  1  0  0  0  0
 18 19  1  0  0  0  0
 18 30  1  0  0  0  0
 19 20  1  0  0  0  0
 19 21  1  0  0  0  0
 21 22  1  0  0  0  0
 21 56  1  0  0  0  0
 21 57  1  0  0  0  0
 22 23  1  0  0  0  0
 22 58  1  0  0  0  0
 22 59  1  0  0  0  0
 23 24  1  0  0  0  0
 23 60  1  0  0  0  0
 23 61  1  0  0  0  0
 24 25  1  0  0  0  0
 24 29  1  0  0  0  0
 24 62  1  0  0  0  0
 25 26  1  0  0  0  0
 25 63  1  0  0  0  0
 25 64  1  0  0  0  0
 26 27  1  0  0  0  0
 26 65  1  0  0  0  0
 26 66  1  0  0  0  0
 27 28  1  0  0  0  0
 28 29  1  0  0  0  0
 28 67  1  0  0  0  0
 28 68  1  0  0  0  0
 29 69  1  0  0  0  0
 29 70  1  0  0  0  0
 30 31  1  0  0  0  0
 30 71  1  0  0  0  0
 30 72  1  0  0  0  0
 31 32  1  0  0  0  0
 31 73  1  0  0  0  0
 31 74  1  0  0  0  0
 32 33  1  0  0  0  0
 32 34  1  0  0  0  0
 33 75  1  0  0  0  0
 33 76  1  0  0  0  0
 34 35  2  0  0  0  0
 34 36  1  0  0  0  0
 36 37  2  0  0  0  0
 36 38  1  0  0  0  0
 38 77  1  0  0  0  0
 38 78  1  0  0  0  0
 39 40  2  0  0  0  0
 39 41  1  0  0  0  0
 41 42  1  0  0  0  0
 41 79  1  0  0  0  0
 42 43  1  0  0  0  0
 42 80  1  0  0  0  0
 42 81  1  0  0  0  0
 43 44  1  0  0  0  0
 43 47  1  0  0  0  0
 43 49  1  6  0  0  0
 44 45  1  0  0  0  0
 44 82  1  0  0  0  0
 44 83  1  0  0  0  0
 45 46  1  0  0  0  0
 45 84  1  0  0  0  0
 45 85  1  0  0  0  0
 46 47  1  0  0  0  0
 46 86  1  0  0  0  0
 46 87  1  0  0  0  0
 47 88  1  0  0  0  0
 47 89  1  0  0  0  0
M  CHG  2  24   1  46   1
M  END
