CatS_62:1_D
 OpenBabel12041818463D

104110  0  0  0  0  0  0  0  0999 V2000
   42.7461   -0.0944   51.4824 C   0  0  0  0  0  0  0  0  0  0  0  0
   41.3171   -0.7196   50.5542 S   0  0  0  0  0  0  0  0  0  0  0  0
   40.3936   -1.2674   51.4929 O   0  0  0  0  0  0  0  0  0  0  0  0
   40.8466    0.3292   49.7111 O   0  0  0  0  0  0  0  0  0  0  0  0
   41.8109   -1.9164   49.5567 N   0  0  0  0  0  0  0  0  0  0  0  0
   42.2095   -3.2181   50.1351 C   0  0  0  0  0  0  0  0  0  0  0  0
   42.0781   -4.3654   49.1053 C   0  0  0  0  0  0  0  0  0  0  0  0
   42.8448   -4.0141   47.8432 C   0  0  0  0  0  0  0  0  0  0  0  0
   43.1192   -2.7444   47.5380 C   0  0  0  0  0  0  0  0  0  0  0  0
   43.8400   -2.8399   46.3257 C   0  0  0  0  0  0  0  0  0  0  0  0
   43.9336   -4.1129   46.0030 N   0  0  0  0  0  0  0  0  0  0  0  0
   43.3209   -4.8931   46.9226 N   0  0  0  0  0  0  0  0  0  0  0  0
   43.2139   -6.3567   46.8239 C   0  0  0  0  0  0  0  0  0  0  0  0
   41.8152   -6.8537   46.3989 C   0  0  0  0  0  0  0  0  0  0  0  0
   41.7703   -7.3535   44.9392 C   0  0  0  0  0  0  0  0  0  0  0  0
   40.5080   -7.0681   44.1633 N   0  3  2  0  0  0  0  0  0  0  0  0
   40.1522   -8.1564   43.1773 C   0  0  0  0  0  0  0  0  0  0  0  0
   38.8701   -7.8085   42.3893 C   0  0  0  0  0  0  0  0  0  0  0  0
   39.0457   -6.4585   41.6638 C   0  0  2  0  0  0  0  0  0  0  0  0
   39.2993   -5.3729   42.7332 C   0  0  0  0  0  0  0  0  0  0  0  0
   40.5814   -5.7058   43.5181 C   0  0  0  0  0  0  0  0  0  0  0  0
   37.9792   -6.2392   40.6639 N   0  0  0  0  0  0  0  0  0  0  0  0
   36.8819   -5.3002   40.9885 C   0  0  0  0  0  0  0  0  0  0  0  0
   35.6905   -5.2133   40.0246 C   0  0  0  0  0  0  0  0  0  0  0  0
   36.2544   -5.2683   38.6047 C   0  0  0  0  0  0  0  0  0  0  0  0
   36.9654   -6.6225   38.4749 C   0  0  0  0  0  0  0  0  0  0  0  0
   38.0873   -6.8672   39.4697 C   0  0  0  0  0  0  0  0  0  0  0  0
   39.0140   -7.6046   39.1633 O   0  0  0  0  0  0  0  0  0  0  0  0
   44.4151   -1.7803   45.5125 C   0  0  0  0  0  0  0  0  0  0  0  0
   44.2303   -0.4544   45.8776 C   0  0  0  0  0  0  0  0  0  0  0  0
   44.7849    0.5674   45.1384 C   0  0  0  0  0  0  0  0  0  0  0  0
   45.5432    0.2886   44.0272 C   0  0  0  0  0  0  0  0  0  0  0  0
   45.7383   -1.0354   43.6444 C   0  0  0  0  0  0  0  0  0  0  0  0
   45.1608   -2.0589   44.3851 C   0  0  0  0  0  0  0  0  0  0  0  0
   46.5529   -1.3735   42.5058 C   0  0  0  0  0  0  0  0  0  0  0  0
   47.2194   -1.6902   41.5345 C   0  0  0  0  0  0  0  0  0  0  0  0
   47.9845   -2.0990   40.3855 C   0  0  0  0  0  0  0  0  0  0  0  0
   49.2263   -1.5291   40.1325 C   0  0  0  0  0  0  0  0  0  0  0  0
   49.9749   -1.9672   39.0705 C   0  0  0  0  0  0  0  0  0  0  0  0
   49.4993   -2.9562   38.2305 C   0  0  0  0  0  0  0  0  0  0  0  0
   48.2575   -3.5098   38.4748 C   0  0  0  0  0  0  0  0  0  0  0  0
   47.5030   -3.0936   39.5418 C   0  0  0  0  0  0  0  0  0  0  0  0
   50.3261   -3.4855   37.0630 C   0  0  0  0  0  0  0  0  0  0  0  0
   50.8820   -2.4512   36.1130 N   0  3  0  0  0  0  0  0  0  0  0  0
   52.3886   -2.3958   36.0097 C   0  0  0  0  0  0  0  0  0  0  0  0
   53.0001   -1.0427   35.6641 C   0  0  0  0  0  0  0  0  0  0  0  0
   52.9513    0.0528   36.5015 C   0  0  0  0  0  0  0  0  0  0  0  0
   53.4876    1.2571   36.1068 C   0  0  0  0  0  0  0  0  0  0  0  0
   54.0717    1.3789   34.8661 C   0  0  0  0  0  0  0  0  0  0  0  0
   54.1265    0.2896   34.0268 C   0  0  0  0  0  0  0  0  0  0  0  0
   53.5927   -0.9133   34.4269 C   0  0  0  0  0  0  0  0  0  0  0  0
   54.7284    2.9063   34.3558 Cl  0  0  0  0  0  0  0  0  0  0  0  0
   46.2538    1.5822   43.1074 Cl  0  0  0  0  0  0  0  0  0  0  0  0
   42.6999   -1.5747   48.4199 C   0  0  0  0  0  0  0  0  0  0  0  0
   43.5618   -0.6023   51.2054 H   0  0  0  0  0  0  0  0  0  0  0  0
   42.8740    0.8787   51.2907 H   0  0  0  0  0  0  0  0  0  0  0  0
   42.5897   -0.2152   52.4627 H   0  0  0  0  0  0  0  0  0  0  0  0
   41.6257   -3.4172   50.9222 H   0  0  0  0  0  0  0  0  0  0  0  0
   43.1688   -3.1563   50.4106 H   0  0  0  0  0  0  0  0  0  0  0  0
   41.1132   -4.5047   48.8826 H   0  0  0  0  0  0  0  0  0  0  0  0
   42.4555   -5.2048   49.4964 H   0  0  0  0  0  0  0  0  0  0  0  0
   43.4332   -6.7509   47.7164 H   0  0  0  0  0  0  0  0  0  0  0  0
   43.8528   -6.6471   46.1115 H   0  0  0  0  0  0  0  0  0  0  0  0
   41.1637   -6.1020   46.5010 H   0  0  0  0  0  0  0  0  0  0  0  0
   41.5822   -7.6288   46.9862 H   0  0  0  0  0  0  0  0  0  0  0  0
   41.9029   -8.3446   44.9528 H   0  0  0  0  0  0  0  0  0  0  0  0
   42.4888   -6.8444   44.4654 H   0  0  0  0  0  0  0  0  0  0  0  0
   39.8240   -7.0301   44.7626 H   0  0  0  0  0  0  0  0  0  0  0  0
   40.0095   -9.0127   43.6736 H   0  0  0  0  0  0  0  0  0  0  0  0
   40.9050   -8.2474   42.5252 H   0  0  0  0  0  0  0  0  0  0  0  0
   38.0972   -7.7496   43.0210 H   0  0  0  0  0  0  0  0  0  0  0  0
   38.6975   -8.5236   41.7118 H   0  0  0  0  0  0  0  0  0  0  0  0
   39.8554   -6.4295   41.0774 H   0  0  0  0  0  0  0  0  0  0  0  0
   38.5222   -5.3355   43.3616 H   0  0  0  0  0  0  0  0  0  0  0  0
   39.4084   -4.4859   42.2846 H   0  0  0  0  0  0  0  0  0  0  0  0
   41.3612   -5.6844   42.8925 H   0  0  0  0  0  0  0  0  0  0  0  0
   40.6854   -5.0248   44.2429 H   0  0  0  0  0  0  0  0  0  0  0  0
   37.2820   -4.3858   41.0520 H   0  0  0  0  0  0  0  0  0  0  0  0
   36.4885   -5.6629   41.8333 H   0  0  0  0  0  0  0  0  0  0  0  0
   35.1946   -4.3565   40.1664 H   0  0  0  0  0  0  0  0  0  0  0  0
   35.0510   -5.9659   40.1814 H   0  0  0  0  0  0  0  0  0  0  0  0
   36.9008   -4.5196   38.4579 H   0  0  0  0  0  0  0  0  0  0  0  0
   35.5297   -5.1730   37.9222 H   0  0  0  0  0  0  0  0  0  0  0  0
   37.3482   -6.6845   37.5532 H   0  0  0  0  0  0  0  0  0  0  0  0
   36.2721   -7.3170   38.6672 H   0  0  0  0  0  0  0  0  0  0  0  0
   43.6870   -0.2374   46.6887 H   0  0  0  0  0  0  0  0  0  0  0  0
   44.6345    1.5174   45.4120 H   0  0  0  0  0  0  0  0  0  0  0  0
   45.2870   -3.0086   44.0984 H   0  0  0  0  0  0  0  0  0  0  0  0
   49.5733   -0.8010   40.7237 H   0  0  0  0  0  0  0  0  0  0  0  0
   50.8755   -1.5665   38.9018 H   0  0  0  0  0  0  0  0  0  0  0  0
   47.9050   -4.2215   37.8672 H   0  0  0  0  0  0  0  0  0  0  0  0
   46.6077   -3.5050   39.7127 H   0  0  0  0  0  0  0  0  0  0  0  0
   49.7475   -4.1074   36.5354 H   0  0  0  0  0  0  0  0  0  0  0  0
   51.1250   -3.9206   37.4782 H   0  0  0  0  0  0  0  0  0  0  0  0
   50.5432   -1.6291   36.3107 H   0  0  0  0  0  0  0  0  0  0  0  0
   50.5361   -2.6346   35.2925 H   0  0  0  0  0  0  0  0  0  0  0  0
   52.6698   -3.0473   35.3051 H   0  0  0  0  0  0  0  0  0  0  0  0
   52.7234   -2.6079   36.9278 H   0  0  0  0  0  0  0  0  0  0  0  0
   52.5232   -0.0289   37.4016 H   0  0  0  0  0  0  0  0  0  0  0  0
   53.4529    2.0448   36.7219 H   0  0  0  0  0  0  0  0  0  0  0  0
   54.5541    0.3726   33.1266 H   0  0  0  0  0  0  0  0  0  0  0  0
   53.6351   -1.7021   33.8137 H   0  0  0  0  0  0  0  0  0  0  0  0
   43.5275   -1.1534   48.7906 H   0  0  0  0  0  0  0  0  0  0  0  0
   42.1685   -0.9661   47.8306 H   0  0  0  0  0  0  0  0  0  0  0  0
  1  2  1  0  0  0  0
  1 55  1  0  0  0  0
  1 56  1  0  0  0  0
  1 57  1  0  0  0  0
  2  3  2  0  0  0  0
  2  4  2  0  0  0  0
  2  5  1  0  0  0  0
  5  6  1  0  0  0  0
  5 54  1  0  0  0  0
  6  7  1  0  0  0  0
  6 58  1  0  0  0  0
  6 59  1  0  0  0  0
  7  8  1  0  0  0  0
  7 60  1  0  0  0  0
  7 61  1  0  0  0  0
  8  9  2  0  0  0  0
  8 12  1  0  0  0  0
  9 10  1  0  0  0  0
  9 54  1  0  0  0  0
 10 11  2  0  0  0  0
 10 29  1  0  0  0  0
 11 12  1  0  0  0  0
 12 13  1  0  0  0  0
 13 14  1  0  0  0  0
 13 62  1  0  0  0  0
 13 63  1  0  0  0  0
 14 15  1  0  0  0  0
 14 64  1  0  0  0  0
 14 65  1  0  0  0  0
 15 16  1  0  0  0  0
 15 66  1  0  0  0  0
 15 67  1  0  0  0  0
 16 17  1  0  0  0  0
 16 21  1  0  0  0  0
 16 68  1  1  0  0  0
 17 18  1  0  0  0  0
 17 69  1  0  0  0  0
 17 70  1  0  0  0  0
 18 19  1  0  0  0  0
 18 71  1  0  0  0  0
 18 72  1  0  0  0  0
 19 20  1  0  0  0  0
 19 22  1  0  0  0  0
 19 73  1  6  0  0  0
 20 21  1  0  0  0  0
 20 74  1  0  0  0  0
 20 75  1  0  0  0  0
 21 76  1  0  0  0  0
 21 77  1  0  0  0  0
 22 23  1  0  0  0  0
 22 27  1  0  0  0  0
 23 24  1  0  0  0  0
 23 78  1  0  0  0  0
 23 79  1  0  0  0  0
 24 25  1  0  0  0  0
 24 80  1  0  0  0  0
 24 81  1  0  0  0  0
 25 26  1  0  0  0  0
 25 82  1  0  0  0  0
 25 83  1  0  0  0  0
 26 27  1  0  0  0  0
 26 84  1  0  0  0  0
 26 85  1  0  0  0  0
 27 28  2  0  0  0  0
 29 30  2  0  0  0  0
 29 34  1  0  0  0  0
 30 31  1  0  0  0  0
 30 86  1  0  0  0  0
 31 32  2  0  0  0  0
 31 87  1  0  0  0  0
 32 33  1  0  0  0  0
 32 53  1  0  0  0  0
 33 34  2  0  0  0  0
 33 35  1  0  0  0  0
 34 88  1  0  0  0  0
 35 36  3  0  0  0  0
 36 37  1  0  0  0  0
 37 38  2  0  0  0  0
 37 42  1  0  0  0  0
 38 39  1  0  0  0  0
 38 89  1  0  0  0  0
 39 40  2  0  0  0  0
 39 90  1  0  0  0  0
 40 41  1  0  0  0  0
 40 43  1  0  0  0  0
 41 42  2  0  0  0  0
 41 91  1  0  0  0  0
 42 92  1  0  0  0  0
 43 44  1  0  0  0  0
 43 93  1  0  0  0  0
 43 94  1  0  0  0  0
 44 45  1  0  0  0  0
 44 95  1  0  0  0  0
 44 96  1  0  0  0  0
 45 46  1  0  0  0  0
 45 97  1  0  0  0  0
 45 98  1  0  0  0  0
 46 47  2  0  0  0  0
 46 51  1  0  0  0  0
 47 48  1  0  0  0  0
 47 99  1  0  0  0  0
 48 49  2  0  0  0  0
 48100  1  0  0  0  0
 49 50  1  0  0  0  0
 49 52  1  0  0  0  0
 50 51  2  0  0  0  0
 50101  1  0  0  0  0
 51102  1  0  0  0  0
 54103  1  0  0  0  0
 54104  1  0  0  0  0
M  CHG  2  16   1  44   1
M  END
