CatS_367:1_D
 OpenBabel12041818463D

 91 96  0  0  1  0  0  0  0  0999 V2000
   40.4361    0.6156   47.3623 C   0  0  0  0  0  0  0  0  0  0  0  0
   41.3779   -0.1052   48.3441 C   0  0  1  0  0  0  0  0  0  0  0  0
   40.5803   -0.4458   49.6175 C   0  0  0  0  0  0  0  0  0  0  0  0
   41.4193   -1.1217   50.5716 O   0  0  0  0  0  0  0  0  0  0  0  0
   41.9093   -2.3772   50.0673 C   0  0  0  0  0  0  0  0  0  0  0  0
   42.7617   -2.1495   48.8064 C   0  0  0  0  0  0  0  0  0  0  0  0
   41.9972   -1.3623   47.7702 N   0  3  2  0  0  0  0  0  0  0  0  0
   42.8579   -1.1122   46.5543 C   0  0  0  0  0  0  0  0  0  0  0  0
   42.4786   -1.9302   45.3027 C   0  0  0  0  0  0  0  0  0  0  0  0
   42.8037   -3.4244   45.5136 C   0  0  0  0  0  0  0  0  0  0  0  0
   41.8371   -4.4097   45.0036 N   0  0  0  0  0  0  0  0  0  0  0  0
   41.5129   -5.6570   45.4397 C   0  0  0  0  0  0  0  0  0  0  0  0
   40.6180   -6.2631   44.6586 C   0  0  0  0  0  0  0  0  0  0  0  0
   40.3949   -5.3258   43.6292 C   0  0  0  0  0  0  0  0  0  0  0  0
   41.1068   -4.2470   43.8762 N   0  0  0  0  0  0  0  0  0  0  0  0
   39.5847   -5.4999   42.4417 C   0  0  0  0  0  0  0  0  0  0  0  0
   38.4182   -4.7861   42.2146 C   0  0  0  0  0  0  0  0  0  0  0  0
   37.7076   -4.9743   41.0481 C   0  0  0  0  0  0  0  0  0  0  0  0
   38.1557   -5.8534   40.0885 C   0  0  0  0  0  0  0  0  0  0  0  0
   39.3358   -6.5649   40.3035 C   0  0  0  0  0  0  0  0  0  0  0  0
   40.0253   -6.3917   41.4917 C   0  0  0  0  0  0  0  0  0  0  0  0
   39.9363   -7.4827   39.3701 C   0  0  0  0  0  0  0  0  0  0  0  0
   40.5220   -8.1923   38.5701 C   0  0  0  0  0  0  0  0  0  0  0  0
   41.2865   -8.9822   37.6425 C   0  0  0  0  0  0  0  0  0  0  0  0
   42.1683   -8.3302   36.7887 C   0  0  0  0  0  0  0  0  0  0  0  0
   42.9310   -9.0553   35.9125 C   0  0  0  0  0  0  0  0  0  0  0  0
   42.8244  -10.4310   35.8783 C   0  0  0  0  0  0  0  0  0  0  0  0
   41.9440  -11.0892   36.7175 C   0  0  0  0  0  0  0  0  0  0  0  0
   41.1685  -10.3652   37.5889 C   0  0  0  0  0  0  0  0  0  0  0  0
   41.8236  -12.6057   36.6635 C   0  0  0  0  0  0  0  0  0  0  0  0
   40.8103  -13.1245   35.6714 N   0  3  0  0  0  0  0  0  0  0  0  0
   39.4114  -13.3169   36.2071 C   0  0  0  0  0  0  0  0  0  0  0  0
   38.2938  -12.6493   35.4188 C   0  0  0  0  0  0  0  0  0  0  0  0
   38.2254  -12.9175   34.0689 C   0  0  0  0  0  0  0  0  0  0  0  0
   37.2306  -12.3653   33.2957 C   0  0  0  0  0  0  0  0  0  0  0  0
   36.2942  -11.5386   33.8711 C   0  0  0  0  0  0  0  0  0  0  0  0
   36.3548  -11.2675   35.2184 C   0  0  0  0  0  0  0  0  0  0  0  0
   37.3498  -11.8226   35.9899 C   0  0  0  0  0  0  0  0  0  0  0  0
   43.8031  -11.3338   34.7599 Cl  0  0  0  0  0  0  0  0  0  0  0  0
   37.2466   -6.0670   38.6240 Cl  0  0  0  0  0  0  0  0  0  0  0  0
   40.0629   -7.6540   44.9405 C   0  0  0  0  0  0  0  0  0  0  0  0
   40.3302   -8.0985   46.3284 N   0  0  0  0  0  0  0  0  0  0  0  0
   41.7568   -7.8731   46.6348 C   0  0  0  0  0  0  0  0  0  0  0  0
   42.0618   -6.3588   46.6720 C   0  0  0  0  0  0  0  0  0  0  0  0
   39.7485   -9.5343   46.8116 S   0  0  0  0  0  0  0  0  0  0  0  0
   38.3380   -9.5243   46.5939 O   0  0  0  0  0  0  0  0  0  0  0  0
   40.2034   -9.7299   48.1486 O   0  0  0  0  0  0  0  0  0  0  0  0
   40.4603  -10.8235   45.7543 C   0  0  0  0  0  0  0  0  0  0  0  0
   42.1394    0.5111   48.5450 H   0  0  0  0  0  0  0  0  0  0  0  0
   39.8831   -0.0654   46.8823 H   0  0  0  0  0  0  0  0  0  0  0  0
   39.8390    1.2410   47.8644 H   0  0  0  0  0  0  0  0  0  0  0  0
   40.9747    1.1394   46.7023 H   0  0  0  0  0  0  0  0  0  0  0  0
   39.8096   -1.0358   49.3769 H   0  0  0  0  0  0  0  0  0  0  0  0
   40.2462    0.4034   50.0266 H   0  0  0  0  0  0  0  0  0  0  0  0
   41.1352   -2.9691   49.8429 H   0  0  0  0  0  0  0  0  0  0  0  0
   42.4761   -2.8104   50.7680 H   0  0  0  0  0  0  0  0  0  0  0  0
   43.0217   -3.0351   48.4216 H   0  0  0  0  0  0  0  0  0  0  0  0
   43.5759   -1.6287   49.0629 H   0  0  0  0  0  0  0  0  0  0  0  0
   41.3058   -1.8948   47.5100 H   0  0  0  0  0  0  0  0  0  0  0  0
   43.8043   -1.3289   46.7936 H   0  0  0  0  0  0  0  0  0  0  0  0
   42.7203   -0.1525   46.3095 H   0  0  0  0  0  0  0  0  0  0  0  0
   42.9916   -1.5872   44.5158 H   0  0  0  0  0  0  0  0  0  0  0  0
   41.4967   -1.8343   45.1394 H   0  0  0  0  0  0  0  0  0  0  0  0
   42.8978   -3.5755   46.4976 H   0  0  0  0  0  0  0  0  0  0  0  0
   43.6325   -3.5822   44.9767 H   0  0  0  0  0  0  0  0  0  0  0  0
   38.0915   -4.1334   42.8981 H   0  0  0  0  0  0  0  0  0  0  0  0
   36.8588   -4.4673   40.8979 H   0  0  0  0  0  0  0  0  0  0  0  0
   40.8555   -6.9227   41.6617 H   0  0  0  0  0  0  0  0  0  0  0  0
   42.2457   -7.3336   36.8143 H   0  0  0  0  0  0  0  0  0  0  0  0
   43.5657   -8.5878   35.2971 H   0  0  0  0  0  0  0  0  0  0  0  0
   40.5177  -10.8342   38.1859 H   0  0  0  0  0  0  0  0  0  0  0  0
   41.5670  -12.9315   37.5734 H   0  0  0  0  0  0  0  0  0  0  0  0
   42.7131  -12.9481   36.3611 H   0  0  0  0  0  0  0  0  0  0  0  0
   40.7802  -12.5296   34.9834 H   0  0  0  0  0  0  0  0  0  0  0  0
   41.1099  -13.8927   35.2845 H   0  0  0  0  0  0  0  0  0  0  0  0
   39.3879  -12.9566   37.1396 H   0  0  0  0  0  0  0  0  0  0  0  0
   39.2328  -14.2988   36.1438 H   0  0  0  0  0  0  0  0  0  0  0  0
   38.9046  -13.5186   33.6478 H   0  0  0  0  0  0  0  0  0  0  0  0
   37.1883  -12.5650   32.3167 H   0  0  0  0  0  0  0  0  0  0  0  0
   35.5706  -11.1352   33.3111 H   0  0  0  0  0  0  0  0  0  0  0  0
   35.6747  -10.6661   35.6377 H   0  0  0  0  0  0  0  0  0  0  0  0
   37.3883  -11.6254   36.9695 H   0  0  0  0  0  0  0  0  0  0  0  0
   40.4826   -8.3033   44.3062 H   0  0  0  0  0  0  0  0  0  0  0  0
   39.0710   -7.6164   44.8195 H   0  0  0  0  0  0  0  0  0  0  0  0
   42.3197   -8.3088   45.9323 H   0  0  0  0  0  0  0  0  0  0  0  0
   41.9648   -8.2687   47.5292 H   0  0  0  0  0  0  0  0  0  0  0  0
   41.6455   -5.9597   47.4890 H   0  0  0  0  0  0  0  0  0  0  0  0
   43.0542   -6.2372   46.6899 H   0  0  0  0  0  0  0  0  0  0  0  0
   41.0343  -11.4224   46.3128 H   0  0  0  0  0  0  0  0  0  0  0  0
   39.7274  -11.3571   45.3323 H   0  0  0  0  0  0  0  0  0  0  0  0
   41.0120  -10.4019   45.0346 H   0  0  0  0  0  0  0  0  0  0  0  0
  1  2  1  0  0  0  0
  1 50  1  0  0  0  0
  1 51  1  0  0  0  0
  1 52  1  0  0  0  0
  2  3  1  0  0  0  0
  2  7  1  0  0  0  0
  2 49  1  1  0  0  0
  3  4  1  0  0  0  0
  3 53  1  0  0  0  0
  3 54  1  0  0  0  0
  4  5  1  0  0  0  0
  5  6  1  0  0  0  0
  5 55  1  0  0  0  0
  5 56  1  0  0  0  0
  6  7  1  0  0  0  0
  6 57  1  0  0  0  0
  6 58  1  0  0  0  0
  7  8  1  0  0  0  0
  7 59  1  6  0  0  0
  8  9  1  0  0  0  0
  8 60  1  0  0  0  0
  8 61  1  0  0  0  0
  9 10  1  0  0  0  0
  9 62  1  0  0  0  0
  9 63  1  0  0  0  0
 10 11  1  0  0  0  0
 10 64  1  0  0  0  0
 10 65  1  0  0  0  0
 11 12  1  0  0  0  0
 11 15  1  0  0  0  0
 12 13  2  0  0  0  0
 12 44  1  0  0  0  0
 13 14  1  0  0  0  0
 13 41  1  0  0  0  0
 14 15  2  0  0  0  0
 14 16  1  0  0  0  0
 16 17  2  0  0  0  0
 16 21  1  0  0  0  0
 17 18  1  0  0  0  0
 17 66  1  0  0  0  0
 18 19  2  0  0  0  0
 18 67  1  0  0  0  0
 19 20  1  0  0  0  0
 19 40  1  0  0  0  0
 20 21  2  0  0  0  0
 20 22  1  0  0  0  0
 21 68  1  0  0  0  0
 22 23  3  0  0  0  0
 23 24  1  0  0  0  0
 24 25  2  0  0  0  0
 24 29  1  0  0  0  0
 25 26  1  0  0  0  0
 25 69  1  0  0  0  0
 26 27  2  0  0  0  0
 26 70  1  0  0  0  0
 27 28  1  0  0  0  0
 27 39  1  0  0  0  0
 28 29  2  0  0  0  0
 28 30  1  0  0  0  0
 29 71  1  0  0  0  0
 30 31  1  0  0  0  0
 30 72  1  0  0  0  0
 30 73  1  0  0  0  0
 31 32  1  0  0  0  0
 31 74  1  0  0  0  0
 31 75  1  0  0  0  0
 32 33  1  0  0  0  0
 32 76  1  0  0  0  0
 32 77  1  0  0  0  0
 33 34  2  0  0  0  0
 33 38  1  0  0  0  0
 34 35  1  0  0  0  0
 34 78  1  0  0  0  0
 35 36  2  0  0  0  0
 35 79  1  0  0  0  0
 36 37  1  0  0  0  0
 36 80  1  0  0  0  0
 37 38  2  0  0  0  0
 37 81  1  0  0  0  0
 38 82  1  0  0  0  0
 41 42  1  0  0  0  0
 41 83  1  0  0  0  0
 41 84  1  0  0  0  0
 42 43  1  0  0  0  0
 42 45  1  0  0  0  0
 43 44  1  0  0  0  0
 43 85  1  0  0  0  0
 43 86  1  0  0  0  0
 44 87  1  0  0  0  0
 44 88  1  0  0  0  0
 45 46  2  0  0  0  0
 45 47  2  0  0  0  0
 45 48  1  0  0  0  0
 48 89  1  0  0  0  0
 48 90  1  0  0  0  0
 48 91  1  0  0  0  0
M  CHG  2   7   1  31   1
M  END
