CatS_170:1_D
 OpenBabel12041818463D

 84 88  0  0  1  0  0  0  0  0999 V2000
   42.0392   -9.6922   47.4294 C   0  0  0  0  0  0  0  0  0  0  0  0
   40.6010   -8.5936   47.5698 S   0  0  0  0  0  0  0  0  0  0  0  0
   39.4239   -9.3922   47.6596 O   0  0  0  0  0  0  0  0  0  0  0  0
   40.8206   -7.7211   48.6775 O   0  0  0  0  0  0  0  0  0  0  0  0
   40.4935   -7.6622   46.2266 N   0  0  0  0  0  0  0  0  0  0  0  0
   40.0858   -8.4098   45.0170 C   0  0  0  0  0  0  0  0  0  0  0  0
   39.5119   -7.4952   43.9095 C   0  0  0  0  0  0  0  0  0  0  0  0
   40.2929   -6.1989   43.7855 C   0  0  0  0  0  0  0  0  0  0  0  0
   41.2333   -5.8507   44.6667 C   0  0  0  0  0  0  0  0  0  0  0  0
   41.6714   -4.5898   44.1938 C   0  0  0  0  0  0  0  0  0  0  0  0
   40.9750   -4.2781   43.1206 N   0  0  0  0  0  0  0  0  0  0  0  0
   40.0994   -5.2636   42.8216 N   0  0  0  0  0  0  0  0  0  0  0  0
   39.0820   -5.1969   41.7632 C   0  0  0  0  0  0  0  0  0  0  0  0
   37.8477   -4.3336   42.0815 C   0  0  2  0  0  0  0  0  0  0  0  0
   36.5383   -5.0322   41.6528 C   0  0  0  0  0  0  0  0  0  0  0  0
   36.5965   -5.5958   40.2519 N   0  3  0  0  0  0  0  0  0  0  0  0
   36.5481   -7.1044   40.2393 C   0  0  0  0  0  0  0  0  0  0  0  0
   36.9264   -7.6772   38.8608 C   0  0  0  0  0  0  0  0  0  0  0  0
   35.7020   -7.1493   37.6359 S   0  0  0  0  0  0  0  0  0  0  0  0
   35.8094   -5.3546   37.8577 C   0  0  0  0  0  0  0  0  0  0  0  0
   35.5763   -4.9696   39.3321 C   0  0  0  0  0  0  0  0  0  0  0  0
   37.9542   -3.0555   41.4376 O   0  0  0  0  0  0  0  0  0  0  0  0
   42.6801   -3.7086   44.7532 C   0  0  0  0  0  0  0  0  0  0  0  0
   43.9701   -4.1368   45.0106 C   0  0  0  0  0  0  0  0  0  0  0  0
   44.8944   -3.2673   45.5435 C   0  0  0  0  0  0  0  0  0  0  0  0
   44.5718   -1.9596   45.8498 C   0  0  0  0  0  0  0  0  0  0  0  0
   43.2780   -1.5357   45.5731 C   0  0  0  0  0  0  0  0  0  0  0  0
   42.3516   -2.3958   45.0311 C   0  0  0  0  0  0  0  0  0  0  0  0
   42.7286    0.1437   45.9005 S   0  0  0  0  0  0  0  0  0  0  0  0
   41.1230   -0.0306   46.7234 C   0  0  0  0  0  0  0  0  0  0  0  0
   41.2244   -0.8017   48.0589 C   0  0  0  0  0  0  0  0  0  0  0  0
   40.4566   -0.1950   49.2093 N   0  3  0  0  0  0  0  0  0  0  0  0
   40.2433   -1.1390   50.3647 C   0  0  0  0  0  0  0  0  0  0  0  0
   41.6064   -1.4781   51.0000 C   0  0  0  0  0  0  0  0  0  0  0  0
   42.4274   -0.2152   51.3626 C   0  0  0  0  0  0  0  0  0  0  0  0
   41.7017    1.1121   51.0369 C   0  0  0  0  0  0  0  0  0  0  0  0
   41.0292    1.1369   49.6422 C   0  0  0  0  0  0  0  0  0  0  0  0
   43.6319   -0.2443   50.6673 F   0  0  0  0  0  0  0  0  0  0  0  0
   42.7620   -0.2471   52.7141 F   0  0  0  0  0  0  0  0  0  0  0  0
   45.7083   -1.1292   46.4541 C   0  0  0  0  0  0  0  0  0  0  0  0
   45.8617    0.0984   45.8142 F   0  0  0  0  0  0  0  0  0  0  0  0
   46.9529   -1.7470   46.3891 F   0  0  0  0  0  0  0  0  0  0  0  0
   45.4546   -0.8576   47.7940 F   0  0  0  0  0  0  0  0  0  0  0  0
   41.5929   -6.7301   45.8638 C   0  0  0  0  0  0  0  0  0  0  0  0
   37.8176   -4.2037   43.0725 H   0  0  0  0  0  0  0  0  0  0  0  0
   42.4957   -9.5211   46.5563 H   0  0  0  0  0  0  0  0  0  0  0  0
   42.6740   -9.5156   48.1816 H   0  0  0  0  0  0  0  0  0  0  0  0
   41.7402  -10.6455   47.4730 H   0  0  0  0  0  0  0  0  0  0  0  0
   39.3893   -9.0797   45.2738 H   0  0  0  0  0  0  0  0  0  0  0  0
   40.9036   -8.8503   44.6469 H   0  0  0  0  0  0  0  0  0  0  0  0
   38.5590   -7.2822   44.1254 H   0  0  0  0  0  0  0  0  0  0  0  0
   39.5810   -7.9820   43.0387 H   0  0  0  0  0  0  0  0  0  0  0  0
   38.7693   -6.1281   41.5759 H   0  0  0  0  0  0  0  0  0  0  0  0
   39.5275   -4.7581   40.9828 H   0  0  0  0  0  0  0  0  0  0  0  0
   35.7918   -4.3685   41.7004 H   0  0  0  0  0  0  0  0  0  0  0  0
   36.3938   -5.8011   42.2756 H   0  0  0  0  0  0  0  0  0  0  0  0
   37.4096   -5.3574   39.9178 H   0  0  0  0  0  0  0  0  0  0  0  0
   35.6225   -7.4020   40.4733 H   0  0  0  0  0  0  0  0  0  0  0  0
   37.2112   -7.4421   40.9073 H   0  0  0  0  0  0  0  0  0  0  0  0
   36.9473   -8.6759   38.9069 H   0  0  0  0  0  0  0  0  0  0  0  0
   37.8300   -7.3410   38.5954 H   0  0  0  0  0  0  0  0  0  0  0  0
   35.1186   -4.9104   37.2872 H   0  0  0  0  0  0  0  0  0  0  0  0
   36.7247   -5.0532   37.5902 H   0  0  0  0  0  0  0  0  0  0  0  0
   35.6285   -3.9749   39.4202 H   0  0  0  0  0  0  0  0  0  0  0  0
   34.6739   -5.3086   39.5980 H   0  0  0  0  0  0  0  0  0  0  0  0
   38.5983   -2.4539   41.9225 H   0  0  0  0  0  0  0  0  0  0  0  0
   44.2318   -5.0806   44.8088 H   0  0  0  0  0  0  0  0  0  0  0  0
   45.8251   -3.5911   45.7135 H   0  0  0  0  0  0  0  0  0  0  0  0
   41.4278   -2.0664   44.8356 H   0  0  0  0  0  0  0  0  0  0  0  0
   40.4998   -0.5204   46.1136 H   0  0  0  0  0  0  0  0  0  0  0  0
   40.7851    0.8880   46.9287 H   0  0  0  0  0  0  0  0  0  0  0  0
   42.1890   -0.8494   48.3181 H   0  0  0  0  0  0  0  0  0  0  0  0
   40.8136   -1.6984   47.8941 H   0  0  0  0  0  0  0  0  0  0  0  0
   39.6245   -0.0188   48.8817 H   0  0  0  0  0  0  0  0  0  0  0  0
   39.8060   -1.9768   50.0378 H   0  0  0  0  0  0  0  0  0  0  0  0
   39.6539   -0.7069   51.0472 H   0  0  0  0  0  0  0  0  0  0  0  0
   42.1334   -2.0310   50.3545 H   0  0  0  0  0  0  0  0  0  0  0  0
   41.4284   -1.9753   51.8493 H   0  0  0  0  0  0  0  0  0  0  0  0
   42.3689    1.8556   51.0802 H   0  0  0  0  0  0  0  0  0  0  0  0
   40.9701    1.2143   51.7110 H   0  0  0  0  0  0  0  0  0  0  0  0
   40.2881    1.8082   49.6600 H   0  0  0  0  0  0  0  0  0  0  0  0
   41.7436    1.3717   48.9830 H   0  0  0  0  0  0  0  0  0  0  0  0
   42.4089   -7.2635   45.6411 H   0  0  0  0  0  0  0  0  0  0  0  0
   41.7562   -6.1291   46.6461 H   0  0  0  0  0  0  0  0  0  0  0  0
  1  2  1  0  0  0  0
  1 46  1  0  0  0  0
  1 47  1  0  0  0  0
  1 48  1  0  0  0  0
  2  3  2  0  0  0  0
  2  4  2  0  0  0  0
  2  5  1  0  0  0  0
  5  6  1  0  0  0  0
  5 44  1  0  0  0  0
  6  7  1  0  0  0  0
  6 49  1  0  0  0  0
  6 50  1  0  0  0  0
  7  8  1  0  0  0  0
  7 51  1  0  0  0  0
  7 52  1  0  0  0  0
  8  9  2  0  0  0  0
  8 12  1  0  0  0  0
  9 10  1  0  0  0  0
  9 44  1  0  0  0  0
 10 11  2  0  0  0  0
 10 23  1  0  0  0  0
 11 12  1  0  0  0  0
 12 13  1  0  0  0  0
 13 14  1  0  0  0  0
 13 53  1  0  0  0  0
 13 54  1  0  0  0  0
 14 15  1  0  0  0  0
 14 22  1  0  0  0  0
 14 45  1  1  0  0  0
 15 16  1  0  0  0  0
 15 55  1  0  0  0  0
 15 56  1  0  0  0  0
 16 17  1  0  0  0  0
 16 21  1  0  0  0  0
 16 57  1  0  0  0  0
 17 18  1  0  0  0  0
 17 58  1  0  0  0  0
 17 59  1  0  0  0  0
 18 19  1  0  0  0  0
 18 60  1  0  0  0  0
 18 61  1  0  0  0  0
 19 20  1  0  0  0  0
 20 21  1  0  0  0  0
 20 62  1  0  0  0  0
 20 63  1  0  0  0  0
 21 64  1  0  0  0  0
 21 65  1  0  0  0  0
 22 66  1  0  0  0  0
 23 24  2  0  0  0  0
 23 28  1  0  0  0  0
 24 25  1  0  0  0  0
 24 67  1  0  0  0  0
 25 26  2  0  0  0  0
 25 68  1  0  0  0  0
 26 27  1  0  0  0  0
 26 40  1  0  0  0  0
 27 28  2  0  0  0  0
 27 29  1  0  0  0  0
 28 69  1  0  0  0  0
 29 30  1  0  0  0  0
 30 31  1  0  0  0  0
 30 70  1  0  0  0  0
 30 71  1  0  0  0  0
 31 32  1  0  0  0  0
 31 72  1  0  0  0  0
 31 73  1  0  0  0  0
 32 33  1  0  0  0  0
 32 37  1  0  0  0  0
 32 74  1  0  0  0  0
 33 34  1  0  0  0  0
 33 75  1  0  0  0  0
 33 76  1  0  0  0  0
 34 35  1  0  0  0  0
 34 77  1  0  0  0  0
 34 78  1  0  0  0  0
 35 36  1  0  0  0  0
 35 38  1  0  0  0  0
 35 39  1  0  0  0  0
 36 37  1  0  0  0  0
 36 79  1  0  0  0  0
 36 80  1  0  0  0  0
 37 81  1  0  0  0  0
 37 82  1  0  0  0  0
 40 41  1  0  0  0  0
 40 42  1  0  0  0  0
 40 43  1  0  0  0  0
 44 83  1  0  0  0  0
 44 84  1  0  0  0  0
M  CHG  2  16   1  32   1
M  END
