CatS_459:1_D
 OpenBabel12041818463D

 87 91  0  0  1  0  0  0  0  0999 V2000
   40.7354   -0.9457   49.1705 C   0  0  0  0  0  0  0  0  0  0  0  0
   40.9939   -0.5644   47.6980 C   0  0  1  0  0  0  0  0  0  0  0  0
   40.2952    0.7766   47.4007 C   0  0  0  0  0  0  0  0  0  0  0  0
   40.9579    1.8604   48.0807 O   0  0  0  0  0  0  0  0  0  0  0  0
   42.3286    2.0169   47.6638 C   0  0  0  0  0  0  0  0  0  0  0  0
   43.1447    0.7439   47.9638 C   0  0  0  0  0  0  0  0  0  0  0  0
   42.4636   -0.4524   47.3449 N   0  3  2  0  0  0  0  0  0  0  0  0
   42.7286   -0.5845   45.8648 C   0  0  0  0  0  0  0  0  0  0  0  0
   42.0755   -1.8146   45.1951 C   0  0  0  0  0  0  0  0  0  0  0  0
   42.8226   -3.1452   45.4309 C   0  0  0  0  0  0  0  0  0  0  0  0
   41.9272   -4.2336   45.0113 N   0  0  0  0  0  0  0  0  0  0  0  0
   41.7059   -5.4695   45.5275 C   0  0  0  0  0  0  0  0  0  0  0  0
   40.7845   -6.1609   44.8440 C   0  0  0  0  0  0  0  0  0  0  0  0
   40.3950   -5.2606   43.8219 C   0  0  0  0  0  0  0  0  0  0  0  0
   41.0879   -4.1576   43.9625 N   0  0  0  0  0  0  0  0  0  0  0  0
   39.4466   -5.3831   42.7291 C   0  0  0  0  0  0  0  0  0  0  0  0
   38.1878   -4.7938   42.6632 C   0  0  0  0  0  0  0  0  0  0  0  0
   37.3845   -4.9924   41.5568 C   0  0  0  0  0  0  0  0  0  0  0  0
   37.8103   -5.7690   40.5020 C   0  0  0  0  0  0  0  0  0  0  0  0
   39.0732   -6.3540   40.5583 C   0  0  0  0  0  0  0  0  0  0  0  0
   39.8708   -6.1461   41.6707 C   0  0  0  0  0  0  0  0  0  0  0  0
   39.6628   -7.1885   39.5437 C   0  0  0  0  0  0  0  0  0  0  0  0
   40.2807   -7.8598   38.7326 C   0  0  0  0  0  0  0  0  0  0  0  0
   41.1170   -8.6081   37.8299 C   0  0  0  0  0  0  0  0  0  0  0  0
   41.9999   -7.8917   37.0272 C   0  0  0  0  0  0  0  0  0  0  0  0
   42.8307   -8.5488   36.1599 C   0  0  0  0  0  0  0  0  0  0  0  0
   42.7937   -9.9252   36.0845 C   0  0  0  0  0  0  0  0  0  0  0  0
   41.9227  -10.6489   36.8766 C   0  0  0  0  0  0  0  0  0  0  0  0
   41.0826   -9.9970   37.7469 C   0  0  0  0  0  0  0  0  0  0  0  0
   41.9228  -12.1653   36.7727 C   0  0  0  0  0  0  0  0  0  0  0  0
   40.9381  -12.6669   35.7486 N   0  3  0  0  0  0  0  0  0  0  0  0
   39.4969  -12.6443   36.1883 C   0  0  0  0  0  0  0  0  0  0  0  0
   39.0744  -13.9965   36.7941 C   0  0  0  0  0  0  0  0  0  0  0  0
   38.5803  -12.3439   34.9894 C   0  0  0  0  0  0  0  0  0  0  0  0
   43.8578  -10.7516   34.9858 Cl  0  0  0  0  0  0  0  0  0  0  0  0
   36.7831   -6.0092   39.1182 Cl  0  0  0  0  0  0  0  0  0  0  0  0
   40.3427   -7.5745   45.2005 C   0  0  0  0  0  0  0  0  0  0  0  0
   41.0500   -8.0970   46.3918 N   0  0  0  0  0  0  0  0  0  0  0  0
   41.5946   -7.1621   47.3997 C   0  0  0  0  0  0  0  0  0  0  0  0
   42.4179   -6.0327   46.7442 C   0  0  0  0  0  0  0  0  0  0  0  0
   41.1801   -9.4277   46.5493 C   0  0  0  0  0  0  0  0  0  0  0  0
   40.8214  -10.2686   45.7359 O   0  0  0  0  0  0  0  0  0  0  0  0
   41.8020   -9.9763   47.7778 C   0  0  0  0  0  0  0  0  0  0  0  0
   43.0151   -9.9234   47.9201 O   0  0  0  0  0  0  0  0  0  0  0  0
   40.9523  -10.5187   48.6592 N   0  0  0  0  0  0  0  0  0  0  0  0
   40.6234   -1.3047   47.1369 H   0  0  0  0  0  0  0  0  0  0  0  0
   39.7841   -1.2378   49.2689 H   0  0  0  0  0  0  0  0  0  0  0  0
   41.3460   -1.6910   49.4385 H   0  0  0  0  0  0  0  0  0  0  0  0
   40.9087   -0.1556   49.7582 H   0  0  0  0  0  0  0  0  0  0  0  0
   39.3442    0.7273   47.7059 H   0  0  0  0  0  0  0  0  0  0  0  0
   40.3335    0.9464   46.4159 H   0  0  0  0  0  0  0  0  0  0  0  0
   42.7339    2.7907   48.1506 H   0  0  0  0  0  0  0  0  0  0  0  0
   42.3454    2.1801   46.6774 H   0  0  0  0  0  0  0  0  0  0  0  0
   43.2129    0.6161   48.9532 H   0  0  0  0  0  0  0  0  0  0  0  0
   44.0619    0.8391   47.5770 H   0  0  0  0  0  0  0  0  0  0  0  0
   42.8485   -1.1814   47.7336 H   0  0  0  0  0  0  0  0  0  0  0  0
   43.7176   -0.6419   45.7287 H   0  0  0  0  0  0  0  0  0  0  0  0
   42.3186    0.2192   45.4336 H   0  0  0  0  0  0  0  0  0  0  0  0
   42.0315   -1.6488   44.2099 H   0  0  0  0  0  0  0  0  0  0  0  0
   41.1730   -1.9194   45.6128 H   0  0  0  0  0  0  0  0  0  0  0  0
   43.0527   -3.2427   46.3992 H   0  0  0  0  0  0  0  0  0  0  0  0
   43.6743   -3.1690   44.9074 H   0  0  0  0  0  0  0  0  0  0  0  0
   37.8634   -4.2248   43.4190 H   0  0  0  0  0  0  0  0  0  0  0  0
   36.4807   -4.5660   41.5213 H   0  0  0  0  0  0  0  0  0  0  0  0
   40.7793   -6.5627   41.7035 H   0  0  0  0  0  0  0  0  0  0  0  0
   42.0274   -6.8937   37.0842 H   0  0  0  0  0  0  0  0  0  0  0  0
   43.4627   -8.0319   35.5825 H   0  0  0  0  0  0  0  0  0  0  0  0
   40.4491  -10.5184   38.3184 H   0  0  0  0  0  0  0  0  0  0  0  0
   41.6873  -12.5505   37.6649 H   0  0  0  0  0  0  0  0  0  0  0  0
   42.8362  -12.4525   36.4841 H   0  0  0  0  0  0  0  0  0  0  0  0
   41.0332  -12.1660   34.9935 H   0  0  0  0  0  0  0  0  0  0  0  0
   41.1610  -13.5086   35.4812 H   0  0  0  0  0  0  0  0  0  0  0  0
   39.4084  -11.9300   36.8825 H   0  0  0  0  0  0  0  0  0  0  0  0
   38.3059  -14.3625   36.2693 H   0  0  0  0  0  0  0  0  0  0  0  0
   39.8416  -14.6369   36.7591 H   0  0  0  0  0  0  0  0  0  0  0  0
   38.8013  -13.8676   37.7475 H   0  0  0  0  0  0  0  0  0  0  0  0
   37.9268  -13.0933   34.8836 H   0  0  0  0  0  0  0  0  0  0  0  0
   38.0883  -11.4876   35.1467 H   0  0  0  0  0  0  0  0  0  0  0  0
   39.1303  -12.2556   34.1590 H   0  0  0  0  0  0  0  0  0  0  0  0
   40.5268   -8.1767   44.4236 H   0  0  0  0  0  0  0  0  0  0  0  0
   39.3658   -7.5468   45.4123 H   0  0  0  0  0  0  0  0  0  0  0  0
   42.1810   -7.6695   48.0312 H   0  0  0  0  0  0  0  0  0  0  0  0
   40.8263   -6.7449   47.8851 H   0  0  0  0  0  0  0  0  0  0  0  0
   42.5587   -5.2997   47.4098 H   0  0  0  0  0  0  0  0  0  0  0  0
   43.2953   -6.4117   46.4502 H   0  0  0  0  0  0  0  0  0  0  0  0
   40.0884  -10.5240   48.4913 H   0  0  0  0  0  0  0  0  0  0  0  0
   41.2572  -10.8697   49.4062 H   0  0  0  0  0  0  0  0  0  0  0  0
  1  2  1  0  0  0  0
  1 47  1  0  0  0  0
  1 48  1  0  0  0  0
  1 49  1  0  0  0  0
  2  3  1  0  0  0  0
  2  7  1  0  0  0  0
  2 46  1  6  0  0  0
  3  4  1  0  0  0  0
  3 50  1  0  0  0  0
  3 51  1  0  0  0  0
  4  5  1  0  0  0  0
  5  6  1  0  0  0  0
  5 52  1  0  0  0  0
  5 53  1  0  0  0  0
  6  7  1  0  0  0  0
  6 54  1  0  0  0  0
  6 55  1  0  0  0  0
  7  8  1  0  0  0  0
  7 56  1  1  0  0  0
  8  9  1  0  0  0  0
  8 57  1  0  0  0  0
  8 58  1  0  0  0  0
  9 10  1  0  0  0  0
  9 59  1  0  0  0  0
  9 60  1  0  0  0  0
 10 11  1  0  0  0  0
 10 61  1  0  0  0  0
 10 62  1  0  0  0  0
 11 12  1  0  0  0  0
 11 15  1  0  0  0  0
 12 13  2  0  0  0  0
 12 40  1  0  0  0  0
 13 14  1  0  0  0  0
 13 37  1  0  0  0  0
 14 15  2  0  0  0  0
 14 16  1  0  0  0  0
 16 17  2  0  0  0  0
 16 21  1  0  0  0  0
 17 18  1  0  0  0  0
 17 63  1  0  0  0  0
 18 19  2  0  0  0  0
 18 64  1  0  0  0  0
 19 20  1  0  0  0  0
 19 36  1  0  0  0  0
 20 21  2  0  0  0  0
 20 22  1  0  0  0  0
 21 65  1  0  0  0  0
 22 23  3  0  0  0  0
 23 24  1  0  0  0  0
 24 25  2  0  0  0  0
 24 29  1  0  0  0  0
 25 26  1  0  0  0  0
 25 66  1  0  0  0  0
 26 27  2  0  0  0  0
 26 67  1  0  0  0  0
 27 28  1  0  0  0  0
 27 35  1  0  0  0  0
 28 29  2  0  0  0  0
 28 30  1  0  0  0  0
 29 68  1  0  0  0  0
 30 31  1  0  0  0  0
 30 69  1  0  0  0  0
 30 70  1  0  0  0  0
 31 32  1  0  0  0  0
 31 71  1  0  0  0  0
 31 72  1  0  0  0  0
 32 33  1  0  0  0  0
 32 34  1  0  0  0  0
 32 73  1  0  0  0  0
 33 74  1  0  0  0  0
 33 75  1  0  0  0  0
 33 76  1  0  0  0  0
 34 77  1  0  0  0  0
 34 78  1  0  0  0  0
 34 79  1  0  0  0  0
 37 38  1  0  0  0  0
 37 80  1  0  0  0  0
 37 81  1  0  0  0  0
 38 39  1  0  0  0  0
 38 41  1  0  0  0  0
 39 40  1  0  0  0  0
 39 82  1  0  0  0  0
 39 83  1  0  0  0  0
 40 84  1  0  0  0  0
 40 85  1  0  0  0  0
 41 42  2  0  0  0  0
 41 43  1  0  0  0  0
 43 44  2  0  0  0  0
 43 45  1  0  0  0  0
 45 86  1  0  0  0  0
 45 87  1  0  0  0  0
M  CHG  2   7   1  31   1
M  END
