CatS_121:1_D
 OpenBabel12041818463D

100105  0  0  1  0  0  0  0  0999 V2000
   42.6829   -5.8725   50.0990 C   0  0  0  0  0  0  0  0  0  0  0  0
   41.3446   -5.3332   50.1549 O   0  0  0  0  0  0  0  0  0  0  0  0
   40.9511   -4.6577   51.2473 C   0  0  0  0  0  0  0  0  0  0  0  0
   40.4999   -5.3373   52.3714 C   0  0  0  0  0  0  0  0  0  0  0  0
   40.1174   -4.6688   53.5062 C   0  0  0  0  0  0  0  0  0  0  0  0
   40.1869   -3.2996   53.5333 C   0  0  0  0  0  0  0  0  0  0  0  0
   40.6251   -2.6175   52.4230 C   0  0  0  0  0  0  0  0  0  0  0  0
   40.9999   -3.2615   51.2586 C   0  0  0  0  0  0  0  0  0  0  0  0
   41.4596   -2.4052   50.0526 C   0  0  1  0  0  0  0  0  0  0  0  0
   40.4823   -1.2834   49.6303 C   0  0  0  0  0  0  0  0  0  0  0  0
   40.8038   -0.7644   48.2088 C   0  0  0  0  0  0  0  0  0  0  0  0
   42.2861   -0.5816   47.9424 N   0  3  1  0  0  0  0  0  0  0  0  0
   43.1006   -0.5387   49.2091 C   0  0  0  0  0  0  0  0  0  0  0  0
   42.8747   -1.7574   50.1408 C   0  0  0  0  0  0  0  0  0  0  0  0
   42.8481   -1.5691   46.9356 C   0  0  0  0  0  0  0  0  0  0  0  0
   42.0359   -1.7581   45.6286 C   0  0  2  0  0  0  0  0  0  0  0  0
   42.5451   -2.9741   44.8076 C   0  0  0  0  0  0  0  0  0  0  0  0
   41.7584   -4.1455   44.3546 N   0  0  0  0  0  0  0  0  0  0  0  0
   41.5153   -5.3689   44.9099 C   0  0  0  0  0  0  0  0  0  0  0  0
   40.6595   -6.1078   44.1976 C   0  0  0  0  0  0  0  0  0  0  0  0
   40.3217   -5.2811   43.1063 C   0  0  0  0  0  0  0  0  0  0  0  0
   40.9875   -4.1486   43.2277 N   0  0  0  0  0  0  0  0  0  0  0  0
   39.3526   -5.5726   42.0599 C   0  0  0  0  0  0  0  0  0  0  0  0
   38.2232   -4.7799   42.0033 C   0  0  0  0  0  0  0  0  0  0  0  0
   37.3118   -4.9204   40.9913 C   0  0  0  0  0  0  0  0  0  0  0  0
   37.4906   -5.8451   39.9864 C   0  0  0  0  0  0  0  0  0  0  0  0
   38.5881   -6.6984   40.0732 C   0  0  0  0  0  0  0  0  0  0  0  0
   39.5077   -6.5553   41.0954 C   0  0  0  0  0  0  0  0  0  0  0  0
   38.9233   -7.9711   38.8379 S   0  0  0  0  0  0  0  0  0  0  0  0
   40.5581   -8.7681   38.9884 C   0  0  0  0  0  0  0  0  0  0  0  0
   40.8656   -9.6000   37.7265 C   0  0  0  0  0  0  0  0  0  0  0  0
   41.7972   -8.9996   36.7047 N   0  3  1  0  0  0  0  0  0  0  0  0
   42.6441   -7.8778   37.2542 C   0  0  0  0  0  0  0  0  0  0  0  0
   43.5746   -7.3038   36.1634 C   0  0  0  0  0  0  0  0  0  0  0  0
   44.4490   -8.4259   35.5688 C   0  0  1  0  0  0  0  0  0  0  0  0
   43.5453   -9.5080   34.9546 C   0  0  0  0  0  0  0  0  0  0  0  0
   42.6250  -10.0797   36.0478 C   0  0  0  0  0  0  0  0  0  0  0  0
   45.2748   -7.9083   34.5777 F   0  0  0  0  0  0  0  0  0  0  0  0
   36.4310   -5.7282   38.8888 C   0  0  0  0  0  0  0  0  0  0  0  0
   36.8546   -4.9391   37.8245 F   0  0  0  0  0  0  0  0  0  0  0  0
   36.0466   -6.9709   38.4028 F   0  0  0  0  0  0  0  0  0  0  0  0
   35.2647   -5.1165   39.3431 F   0  0  0  0  0  0  0  0  0  0  0  0
   40.2213   -7.5140   44.5932 C   0  0  0  0  0  0  0  0  0  0  0  0
   40.3895   -7.7437   46.0425 N   0  0  0  0  0  0  0  0  0  0  0  0
   41.7873   -7.4282   46.4079 C   0  0  0  0  0  0  0  0  0  0  0  0
   42.0767   -5.9182   46.2141 C   0  0  0  0  0  0  0  0  0  0  0  0
   39.7331   -9.0757   46.7141 S   0  0  0  0  0  0  0  0  0  0  0  0
   40.0258   -9.0795   48.1105 O   0  0  0  0  0  0  0  0  0  0  0  0
   38.3281   -9.0321   46.4654 O   0  0  0  0  0  0  0  0  0  0  0  0
   40.3979  -10.5943   45.9682 C   0  0  0  0  0  0  0  0  0  0  0  0
   41.9544   -0.5753   44.8205 O   0  0  0  0  0  0  0  0  0  0  0  0
   41.0994   -1.9505   45.9217 H   0  0  0  0  0  0  0  0  0  0  0  0
   43.1605   -5.6474   50.9483 H   0  0  0  0  0  0  0  0  0  0  0  0
   42.6426   -6.8656   49.9884 H   0  0  0  0  0  0  0  0  0  0  0  0
   43.1726   -5.4781   49.3214 H   0  0  0  0  0  0  0  0  0  0  0  0
   40.4529   -6.3360   52.3527 H   0  0  0  0  0  0  0  0  0  0  0  0
   39.7913   -5.1744   54.3050 H   0  0  0  0  0  0  0  0  0  0  0  0
   39.9201   -2.7994   54.3571 H   0  0  0  0  0  0  0  0  0  0  0  0
   40.6746   -1.6193   52.4589 H   0  0  0  0  0  0  0  0  0  0  0  0
   41.4853   -3.1279   49.3619 H   0  0  0  0  0  0  0  0  0  0  0  0
   40.5525   -0.5264   50.2800 H   0  0  0  0  0  0  0  0  0  0  0  0
   39.5549   -1.6575   49.6264 H   0  0  0  0  0  0  0  0  0  0  0  0
   40.3475    0.1165   48.0830 H   0  0  0  0  0  0  0  0  0  0  0  0
   40.4778   -1.4577   47.5660 H   0  0  0  0  0  0  0  0  0  0  0  0
   42.3684    0.2510   47.5851 H   0  0  0  0  0  0  0  0  0  0  0  0
   42.8624    0.2930   49.7106 H   0  0  0  0  0  0  0  0  0  0  0  0
   44.0627   -0.5566   48.9369 H   0  0  0  0  0  0  0  0  0  0  0  0
   43.5515   -2.4564   49.9098 H   0  0  0  0  0  0  0  0  0  0  0  0
   42.9643   -1.4119   51.0749 H   0  0  0  0  0  0  0  0  0  0  0  0
   42.9161   -2.4593   47.3858 H   0  0  0  0  0  0  0  0  0  0  0  0
   43.7255   -1.1848   46.6483 H   0  0  0  0  0  0  0  0  0  0  0  0
   43.2901   -3.3585   45.3527 H   0  0  0  0  0  0  0  0  0  0  0  0
   42.6757   -2.5235   43.9245 H   0  0  0  0  0  0  0  0  0  0  0  0
   38.0686   -4.0921   42.7127 H   0  0  0  0  0  0  0  0  0  0  0  0
   36.4983   -4.3389   40.9816 H   0  0  0  0  0  0  0  0  0  0  0  0
   40.2957   -7.1694   41.1394 H   0  0  0  0  0  0  0  0  0  0  0  0
   40.5630   -9.3658   39.7901 H   0  0  0  0  0  0  0  0  0  0  0  0
   41.2573   -8.0601   39.0884 H   0  0  0  0  0  0  0  0  0  0  0  0
   39.9957   -9.7852   37.2692 H   0  0  0  0  0  0  0  0  0  0  0  0
   41.3493  -10.4067   38.0659 H   0  0  0  0  0  0  0  0  0  0  0  0
   41.2819   -8.6399   36.0440 H   0  0  0  0  0  0  0  0  0  0  0  0
   43.1981   -8.2247   38.0111 H   0  0  0  0  0  0  0  0  0  0  0  0
   42.0394   -7.1480   37.5727 H   0  0  0  0  0  0  0  0  0  0  0  0
   44.1618   -6.6005   36.5641 H   0  0  0  0  0  0  0  0  0  0  0  0
   43.0176   -6.9039   35.4355 H   0  0  0  0  0  0  0  0  0  0  0  0
   45.0098   -8.8224   36.2957 H   0  0  0  0  0  0  0  0  0  0  0  0
   44.1097  -10.2398   34.5726 H   0  0  0  0  0  0  0  0  0  0  0  0
   42.9903   -9.1076   34.2256 H   0  0  0  0  0  0  0  0  0  0  0  0
   42.0121  -10.7552   35.6379 H   0  0  0  0  0  0  0  0  0  0  0  0
   43.2008  -10.4999   36.7491 H   0  0  0  0  0  0  0  0  0  0  0  0
   40.7705   -8.1810   44.0896 H   0  0  0  0  0  0  0  0  0  0  0  0
   39.2518   -7.6154   44.3702 H   0  0  0  0  0  0  0  0  0  0  0  0
   42.4071   -7.9605   45.8311 H   0  0  0  0  0  0  0  0  0  0  0  0
   41.9280   -7.6603   47.3704 H   0  0  0  0  0  0  0  0  0  0  0  0
   41.6708   -5.4128   46.9756 H   0  0  0  0  0  0  0  0  0  0  0  0
   43.0700   -5.8064   46.1832 H   0  0  0  0  0  0  0  0  0  0  0  0
   39.6511  -11.0971   45.5328 H   0  0  0  0  0  0  0  0  0  0  0  0
   41.0896  -10.3604   45.2850 H   0  0  0  0  0  0  0  0  0  0  0  0
   40.8187  -11.1610   46.6765 H   0  0  0  0  0  0  0  0  0  0  0  0
   41.0193   -0.2048   44.8043 H   0  0  0  0  0  0  0  0  0  0  0  0
  1  2  1  0  0  0  0
  1 53  1  0  0  0  0
  1 54  1  0  0  0  0
  1 55  1  0  0  0  0
  2  3  1  0  0  0  0
  3  4  2  0  0  0  0
  3  8  1  0  0  0  0
  4  5  1  0  0  0  0
  4 56  1  0  0  0  0
  5  6  2  0  0  0  0
  5 57  1  0  0  0  0
  6  7  1  0  0  0  0
  6 58  1  0  0  0  0
  7  8  2  0  0  0  0
  7 59  1  0  0  0  0
  8  9  1  0  0  0  0
  9 10  1  0  0  0  0
  9 14  1  0  0  0  0
  9 60  1  6  0  0  0
 10 11  1  0  0  0  0
 10 61  1  0  0  0  0
 10 62  1  0  0  0  0
 11 12  1  0  0  0  0
 11 63  1  0  0  0  0
 11 64  1  0  0  0  0
 12 13  1  0  0  0  0
 12 15  1  0  0  0  0
 12 65  1  6  0  0  0
 13 14  1  0  0  0  0
 13 66  1  0  0  0  0
 13 67  1  0  0  0  0
 14 68  1  0  0  0  0
 14 69  1  0  0  0  0
 15 16  1  0  0  0  0
 15 70  1  0  0  0  0
 15 71  1  0  0  0  0
 16 17  1  0  0  0  0
 16 51  1  0  0  0  0
 16 52  1  1  0  0  0
 17 18  1  0  0  0  0
 17 72  1  0  0  0  0
 17 73  1  0  0  0  0
 18 19  1  0  0  0  0
 18 22  1  0  0  0  0
 19 20  2  0  0  0  0
 19 46  1  0  0  0  0
 20 21  1  0  0  0  0
 20 43  1  0  0  0  0
 21 22  2  0  0  0  0
 21 23  1  0  0  0  0
 23 24  2  0  0  0  0
 23 28  1  0  0  0  0
 24 25  1  0  0  0  0
 24 74  1  0  0  0  0
 25 26  2  0  0  0  0
 25 75  1  0  0  0  0
 26 27  1  0  0  0  0
 26 39  1  0  0  0  0
 27 28  2  0  0  0  0
 27 29  1  0  0  0  0
 28 76  1  0  0  0  0
 29 30  1  0  0  0  0
 30 31  1  0  0  0  0
 30 77  1  0  0  0  0
 30 78  1  0  0  0  0
 31 32  1  0  0  0  0
 31 79  1  0  0  0  0
 31 80  1  0  0  0  0
 32 33  1  0  0  0  0
 32 37  1  0  0  0  0
 32 81  1  6  0  0  0
 33 34  1  0  0  0  0
 33 82  1  0  0  0  0
 33 83  1  0  0  0  0
 34 35  1  0  0  0  0
 34 84  1  0  0  0  0
 34 85  1  0  0  0  0
 35 36  1  0  0  0  0
 35 38  1  0  0  0  0
 35 86  1  1  0  0  0
 36 37  1  0  0  0  0
 36 87  1  0  0  0  0
 36 88  1  0  0  0  0
 37 89  1  0  0  0  0
 37 90  1  0  0  0  0
 39 40  1  0  0  0  0
 39 41  1  0  0  0  0
 39 42  1  0  0  0  0
 43 44  1  0  0  0  0
 43 91  1  0  0  0  0
 43 92  1  0  0  0  0
 44 45  1  0  0  0  0
 44 47  1  0  0  0  0
 45 46  1  0  0  0  0
 45 93  1  0  0  0  0
 45 94  1  0  0  0  0
 46 95  1  0  0  0  0
 46 96  1  0  0  0  0
 47 48  2  0  0  0  0
 47 49  2  0  0  0  0
 47 50  1  0  0  0  0
 50 97  1  0  0  0  0
 50 98  1  0  0  0  0
 50 99  1  0  0  0  0
 51100  1  0  0  0  0
M  CHG  2  12   1  32   1
M  END
