CatS_276:1_D
 OpenBabel12041818463D

 94 98  0  0  1  0  0  0  0  0999 V2000
   40.6121   -3.9718   53.2902 C   0  0  0  0  0  0  0  0  0  0  0  0
   41.3605   -4.3098   51.9871 C   0  0  0  0  0  0  0  0  0  0  0  0
   42.7118   -4.9339   52.3891 C   0  0  0  0  0  0  0  0  0  0  0  0
   41.4930   -3.0573   51.0746 C   0  0  1  0  0  0  0  0  0  0  0  0
   41.9258   -3.3370   49.6158 C   0  0  0  0  0  0  0  0  0  0  0  0
   42.1860   -1.9973   48.8955 C   0  0  0  0  0  0  0  0  0  0  0  0
   40.9613   -1.1142   48.9204 N   0  3  1  0  0  0  0  0  0  0  0  0
   40.4670   -0.8745   50.3260 C   0  0  0  0  0  0  0  0  0  0  0  0
   40.2025   -2.2079   51.0551 C   0  0  0  0  0  0  0  0  0  0  0  0
   41.1344    0.1815   48.1658 C   0  0  0  0  0  0  0  0  0  0  0  0
   41.3235    0.0215   46.6407 C   0  0  0  0  0  0  0  0  0  0  0  0
   43.0910    0.0573   46.2283 S   0  0  0  0  0  0  0  0  0  0  0  0
   43.4810   -1.3882   45.2287 C   0  0  0  0  0  0  0  0  0  0  0  0
   42.5191   -2.3682   45.1171 C   0  0  0  0  0  0  0  0  0  0  0  0
   42.7288   -3.4850   44.3263 C   0  0  0  0  0  0  0  0  0  0  0  0
   43.9296   -3.5991   43.6532 C   0  0  0  0  0  0  0  0  0  0  0  0
   44.8957   -2.6318   43.7878 C   0  0  0  0  0  0  0  0  0  0  0  0
   44.6965   -1.5104   44.5684 C   0  0  0  0  0  0  0  0  0  0  0  0
   45.8463   -0.5019   44.6129 C   0  0  0  0  0  0  0  0  0  0  0  0
   45.4707    0.7452   44.1272 F   0  0  0  0  0  0  0  0  0  0  0  0
   46.9095   -0.9445   43.8361 F   0  0  0  0  0  0  0  0  0  0  0  0
   46.3468   -0.2859   45.8943 F   0  0  0  0  0  0  0  0  0  0  0  0
   41.7294   -4.5316   44.2059 C   0  0  0  0  0  0  0  0  0  0  0  0
   41.5262   -5.6658   45.0273 C   0  0  0  0  0  0  0  0  0  0  0  0
   40.5015   -6.2896   44.4399 C   0  0  0  0  0  0  0  0  0  0  0  0
   40.0213   -5.6208   43.3553 N   0  0  0  0  0  0  0  0  0  0  0  0
   40.8356   -4.5483   43.2404 N   0  0  0  0  0  0  0  0  0  0  0  0
   38.9258   -5.9198   42.4165 C   0  0  0  0  0  0  0  0  0  0  0  0
   39.1748   -6.9239   41.2732 C   0  0  2  0  0  0  0  0  0  0  0  0
   38.4596   -6.4696   39.9814 C   0  0  0  0  0  0  0  0  0  0  0  0
   37.0848   -7.0716   39.8311 N   0  3  0  0  0  0  0  0  0  0  0  0
   36.7123   -7.2932   38.3878 C   0  0  0  0  0  0  0  0  0  0  0  0
   36.3711   -5.9361   37.7403 C   0  0  0  0  0  0  0  0  0  0  0  0
   35.3285   -5.2693   38.4780 O   0  0  0  0  0  0  0  0  0  0  0  0
   35.7012   -5.0086   39.8454 C   0  0  0  0  0  0  0  0  0  0  0  0
   36.0112   -6.3265   40.5830 C   0  0  0  0  0  0  0  0  0  0  0  0
   38.7291   -8.2357   41.6475 O   0  0  0  0  0  0  0  0  0  0  0  0
   39.9781   -7.6124   44.9726 C   0  0  0  0  0  0  0  0  0  0  0  0
   40.9219   -8.2243   46.0325 C   0  0  0  0  0  0  0  0  0  0  0  0
   41.4190   -7.2220   46.9967 N   0  0  0  0  0  0  0  0  0  0  0  0
   42.2330   -6.2184   46.2652 C   0  0  0  0  0  0  0  0  0  0  0  0
   41.9982   -7.8768   48.3756 S   0  0  0  0  0  0  0  0  0  0  0  0
   40.9655   -8.6967   48.9225 O   0  0  0  0  0  0  0  0  0  0  0  0
   42.4685   -6.8091   49.2022 O   0  0  0  0  0  0  0  0  0  0  0  0
   43.4190   -8.9278   47.9750 C   0  0  0  0  0  0  0  0  0  0  0  0
   40.5921   -5.3036   51.2916 O   0  0  0  0  0  0  0  0  0  0  0  0
   40.1589   -6.9569   41.0983 H   0  0  0  0  0  0  0  0  0  0  0  0
   39.7778   -4.5211   53.3383 H   0  0  0  0  0  0  0  0  0  0  0  0
   41.1949   -4.1749   54.0770 H   0  0  0  0  0  0  0  0  0  0  0  0
   40.3775   -2.9998   53.3012 H   0  0  0  0  0  0  0  0  0  0  0  0
   42.7392   -5.8823   52.0733 H   0  0  0  0  0  0  0  0  0  0  0  0
   43.4598   -4.4181   51.9714 H   0  0  0  0  0  0  0  0  0  0  0  0
   42.8129   -4.9060   53.3836 H   0  0  0  0  0  0  0  0  0  0  0  0
   42.2394   -2.5491   51.5042 H   0  0  0  0  0  0  0  0  0  0  0  0
   41.2027   -3.8392   49.1417 H   0  0  0  0  0  0  0  0  0  0  0  0
   42.7623   -3.8850   49.6139 H   0  0  0  0  0  0  0  0  0  0  0  0
   42.4395   -2.1804   47.9456 H   0  0  0  0  0  0  0  0  0  0  0  0
   42.9261   -1.5219   49.3711 H   0  0  0  0  0  0  0  0  0  0  0  0
   40.2997   -1.5719   48.4914 H   0  0  0  0  0  0  0  0  0  0  0  0
   39.6195   -0.3449   50.2901 H   0  0  0  0  0  0  0  0  0  0  0  0
   41.1704   -0.3723   50.8291 H   0  0  0  0  0  0  0  0  0  0  0  0
   39.9099   -2.0240   51.9934 H   0  0  0  0  0  0  0  0  0  0  0  0
   39.4838   -2.7097   50.5736 H   0  0  0  0  0  0  0  0  0  0  0  0
   41.9361    0.6527   48.5336 H   0  0  0  0  0  0  0  0  0  0  0  0
   40.2861    0.6958   48.2909 H   0  0  0  0  0  0  0  0  0  0  0  0
   40.8550    0.7674   46.1672 H   0  0  0  0  0  0  0  0  0  0  0  0
   40.9376   -0.8547   46.3519 H   0  0  0  0  0  0  0  0  0  0  0  0
   41.6569   -2.2713   45.6142 H   0  0  0  0  0  0  0  0  0  0  0  0
   44.0965   -4.3902   43.0648 H   0  0  0  0  0  0  0  0  0  0  0  0
   45.7659   -2.7427   43.3078 H   0  0  0  0  0  0  0  0  0  0  0  0
   38.6544   -5.0543   41.9956 H   0  0  0  0  0  0  0  0  0  0  0  0
   38.2392   -6.3721   42.9857 H   0  0  0  0  0  0  0  0  0  0  0  0
   39.0162   -6.7379   39.1951 H   0  0  0  0  0  0  0  0  0  0  0  0
   38.3480   -5.4771   40.0327 H   0  0  0  0  0  0  0  0  0  0  0  0
   37.1290   -7.9029   40.2015 H   0  0  0  0  0  0  0  0  0  0  0  0
   35.9201   -7.9011   38.3344 H   0  0  0  0  0  0  0  0  0  0  0  0
   37.4796   -7.7130   37.9028 H   0  0  0  0  0  0  0  0  0  0  0  0
   36.0669   -6.0866   36.7997 H   0  0  0  0  0  0  0  0  0  0  0  0
   37.1889   -5.3606   37.7492 H   0  0  0  0  0  0  0  0  0  0  0  0
   34.9499   -4.5386   40.3086 H   0  0  0  0  0  0  0  0  0  0  0  0
   36.5207   -4.4356   39.8528 H   0  0  0  0  0  0  0  0  0  0  0  0
   36.3267   -6.1278   41.5109 H   0  0  0  0  0  0  0  0  0  0  0  0
   35.1841   -6.8864   40.6323 H   0  0  0  0  0  0  0  0  0  0  0  0
   38.8374   -8.8897   40.8904 H   0  0  0  0  0  0  0  0  0  0  0  0
   39.8843   -8.2541   44.2114 H   0  0  0  0  0  0  0  0  0  0  0  0
   39.0950   -7.4413   45.4094 H   0  0  0  0  0  0  0  0  0  0  0  0
   41.7033   -8.6390   45.5664 H   0  0  0  0  0  0  0  0  0  0  0  0
   40.3991   -8.9041   46.5469 H   0  0  0  0  0  0  0  0  0  0  0  0
   42.4380   -5.4590   46.8827 H   0  0  0  0  0  0  0  0  0  0  0  0
   43.0651   -6.6781   45.9548 H   0  0  0  0  0  0  0  0  0  0  0  0
   44.2364   -8.5502   48.4102 H   0  0  0  0  0  0  0  0  0  0  0  0
   43.2576   -9.8561   48.3098 H   0  0  0  0  0  0  0  0  0  0  0  0
   43.5472   -8.9572   46.9837 H   0  0  0  0  0  0  0  0  0  0  0  0
   39.9573   -4.8820   50.6347 H   0  0  0  0  0  0  0  0  0  0  0  0
  1  2  1  0  0  0  0
  1 48  1  0  0  0  0
  1 49  1  0  0  0  0
  1 50  1  0  0  0  0
  2  3  1  0  0  0  0
  2  4  1  0  0  0  0
  2 46  1  0  0  0  0
  3 51  1  0  0  0  0
  3 52  1  0  0  0  0
  3 53  1  0  0  0  0
  4  5  1  0  0  0  0
  4  9  1  0  0  0  0
  4 54  1  1  0  0  0
  5  6  1  0  0  0  0
  5 55  1  0  0  0  0
  5 56  1  0  0  0  0
  6  7  1  0  0  0  0
  6 57  1  0  0  0  0
  6 58  1  0  0  0  0
  7  8  1  0  0  0  0
  7 10  1  0  0  0  0
  7 59  1  6  0  0  0
  8  9  1  0  0  0  0
  8 60  1  0  0  0  0
  8 61  1  0  0  0  0
  9 62  1  0  0  0  0
  9 63  1  0  0  0  0
 10 11  1  0  0  0  0
 10 64  1  0  0  0  0
 10 65  1  0  0  0  0
 11 12  1  0  0  0  0
 11 66  1  0  0  0  0
 11 67  1  0  0  0  0
 12 13  1  0  0  0  0
 13 14  2  0  0  0  0
 13 18  1  0  0  0  0
 14 15  1  0  0  0  0
 14 68  1  0  0  0  0
 15 16  2  0  0  0  0
 15 23  1  0  0  0  0
 16 17  1  0  0  0  0
 16 69  1  0  0  0  0
 17 18  2  0  0  0  0
 17 70  1  0  0  0  0
 18 19  1  0  0  0  0
 19 20  1  0  0  0  0
 19 21  1  0  0  0  0
 19 22  1  0  0  0  0
 23 24  1  0  0  0  0
 23 27  2  0  0  0  0
 24 25  2  0  0  0  0
 24 41  1  0  0  0  0
 25 26  1  0  0  0  0
 25 38  1  0  0  0  0
 26 27  1  0  0  0  0
 26 28  1  0  0  0  0
 28 29  1  0  0  0  0
 28 71  1  0  0  0  0
 28 72  1  0  0  0  0
 29 30  1  0  0  0  0
 29 37  1  0  0  0  0
 29 47  1  6  0  0  0
 30 31  1  0  0  0  0
 30 73  1  0  0  0  0
 30 74  1  0  0  0  0
 31 32  1  0  0  0  0
 31 36  1  0  0  0  0
 31 75  1  0  0  0  0
 32 33  1  0  0  0  0
 32 76  1  0  0  0  0
 32 77  1  0  0  0  0
 33 34  1  0  0  0  0
 33 78  1  0  0  0  0
 33 79  1  0  0  0  0
 34 35  1  0  0  0  0
 35 36  1  0  0  0  0
 35 80  1  0  0  0  0
 35 81  1  0  0  0  0
 36 82  1  0  0  0  0
 36 83  1  0  0  0  0
 37 84  1  0  0  0  0
 38 39  1  0  0  0  0
 38 85  1  0  0  0  0
 38 86  1  0  0  0  0
 39 40  1  0  0  0  0
 39 87  1  0  0  0  0
 39 88  1  0  0  0  0
 40 41  1  0  0  0  0
 40 42  1  0  0  0  0
 41 89  1  0  0  0  0
 41 90  1  0  0  0  0
 42 43  2  0  0  0  0
 42 44  2  0  0  0  0
 42 45  1  0  0  0  0
 45 91  1  0  0  0  0
 45 92  1  0  0  0  0
 45 93  1  0  0  0  0
 46 94  1  0  0  0  0
M  CHG  2   7   1  31   1
M  END
