CatS_323:1_D
 OpenBabel12041818463D

 72 77  0  0  0  0  0  0  0  0999 V2000
   46.4223   -2.1289   40.2638 C   0  0  0  0  0  0  0  0  0  0  0  0
   45.2219   -0.9848   40.9979 S   0  0  0  0  0  0  0  0  0  0  0  0
   45.6457    0.3515   40.7379 O   0  0  0  0  0  0  0  0  0  0  0  0
   43.9197   -1.3684   40.5577 O   0  0  0  0  0  0  0  0  0  0  0  0
   45.2499   -1.1800   42.6093 N   0  0  0  0  0  0  0  0  0  0  0  0
   46.5614   -0.8815   43.2185 C   0  0  0  0  0  0  0  0  0  0  0  0
   46.4762   -0.6878   44.7497 C   0  0  0  0  0  0  0  0  0  0  0  0
   45.5817   -1.7264   45.4030 C   0  0  0  0  0  0  0  0  0  0  0  0
   44.8083   -2.5387   44.6765 C   0  0  0  0  0  0  0  0  0  0  0  0
   44.1676   -3.3455   45.6455 C   0  0  0  0  0  0  0  0  0  0  0  0
   44.5774   -2.9576   46.8341 N   0  0  0  0  0  0  0  0  0  0  0  0
   45.4527   -1.9314   46.7408 N   0  0  0  0  0  0  0  0  0  0  0  0
   45.9253   -1.1573   47.8997 C   0  0  0  0  0  0  0  0  0  0  0  0
   45.0189   -0.1054   48.5761 C   0  0  0  0  0  0  0  0  0  0  0  0
   43.5102   -0.4262   48.4364 C   0  0  0  0  0  0  0  0  0  0  0  0
   42.8966    0.0526   47.1447 N   0  3  0  0  0  0  0  0  0  0  0  0
   43.0617    1.5418   46.9698 C   0  0  0  0  0  0  0  0  0  0  0  0
   42.0796    2.2936   47.8887 C   0  0  0  0  0  0  0  0  0  0  0  0
   40.7287    1.8586   47.6449 O   0  0  0  0  0  0  0  0  0  0  0  0
   40.5525    0.4514   47.8974 C   0  0  0  0  0  0  0  0  0  0  0  0
   41.4619   -0.3806   46.9720 C   0  0  0  0  0  0  0  0  0  0  0  0
   43.2222   -4.4371   45.4734 C   0  0  0  0  0  0  0  0  0  0  0  0
   43.3017   -5.5317   46.3225 C   0  0  0  0  0  0  0  0  0  0  0  0
   42.4121   -6.5769   46.2148 C   0  0  0  0  0  0  0  0  0  0  0  0
   41.4234   -6.5514   45.2615 C   0  0  0  0  0  0  0  0  0  0  0  0
   41.3238   -5.4599   44.4014 C   0  0  0  0  0  0  0  0  0  0  0  0
   42.2309   -4.4085   44.5115 C   0  0  0  0  0  0  0  0  0  0  0  0
   40.2705   -5.4176   43.4184 C   0  0  0  0  0  0  0  0  0  0  0  0
   39.3796   -5.4007   42.5838 C   0  0  0  0  0  0  0  0  0  0  0  0
   38.3308   -5.3976   41.5965 C   0  0  0  0  0  0  0  0  0  0  0  0
   37.2643   -4.5172   41.8555 C   0  0  0  0  0  0  0  0  0  0  0  0
   36.2227   -4.4145   40.9894 C   0  0  0  0  0  0  0  0  0  0  0  0
   36.2732   -5.2136   39.8591 C   0  0  0  0  0  0  0  0  0  0  0  0
   35.4285   -5.4165   38.7281 C   0  0  0  0  0  0  0  0  0  0  0  0
   36.0212   -6.3309   37.9597 C   0  0  0  0  0  0  0  0  0  0  0  0
   37.2114   -6.7647   38.4896 N   0  0  0  0  0  0  0  0  0  0  0  0
   37.3444   -6.0644   39.6542 C   0  0  0  0  0  0  0  0  0  0  0  0
   38.3955   -6.1906   40.4953 N   0  0  0  0  0  0  0  0  0  0  0  0
   40.2987   -7.8740   45.1368 Cl  0  0  0  0  0  0  0  0  0  0  0  0
   44.7458   -2.4638   43.1539 C   0  0  0  0  0  0  0  0  0  0  0  0
   46.8623   -2.6518   40.9939 H   0  0  0  0  0  0  0  0  0  0  0  0
   45.9550   -2.7528   39.6374 H   0  0  0  0  0  0  0  0  0  0  0  0
   47.1116   -1.6130   39.7552 H   0  0  0  0  0  0  0  0  0  0  0  0
   46.9240   -0.0452   42.8072 H   0  0  0  0  0  0  0  0  0  0  0  0
   47.1598   -1.6640   43.0467 H   0  0  0  0  0  0  0  0  0  0  0  0
   46.1117    0.2233   44.9419 H   0  0  0  0  0  0  0  0  0  0  0  0
   47.3965   -0.7921   45.1266 H   0  0  0  0  0  0  0  0  0  0  0  0
   46.7513   -0.6769   47.6046 H   0  0  0  0  0  0  0  0  0  0  0  0
   46.0156   -1.8565   48.6089 H   0  0  0  0  0  0  0  0  0  0  0  0
   45.1974    0.7860   48.1594 H   0  0  0  0  0  0  0  0  0  0  0  0
   45.2347   -0.1087   49.5524 H   0  0  0  0  0  0  0  0  0  0  0  0
   43.0243    0.0048   49.1967 H   0  0  0  0  0  0  0  0  0  0  0  0
   43.4254   -1.4226   48.4428 H   0  0  0  0  0  0  0  0  0  0  0  0
   43.3722   -0.3330   46.4695 H   0  0  0  0  0  0  0  0  0  0  0  0
   42.8812    1.7867   46.0172 H   0  0  0  0  0  0  0  0  0  0  0  0
   43.9974    1.7984   47.2123 H   0  0  0  0  0  0  0  0  0  0  0  0
   42.1487    3.2757   47.7135 H   0  0  0  0  0  0  0  0  0  0  0  0
   42.3142    2.0991   48.8413 H   0  0  0  0  0  0  0  0  0  0  0  0
   39.5976    0.2033   47.7343 H   0  0  0  0  0  0  0  0  0  0  0  0
   40.7981    0.2601   48.8477 H   0  0  0  0  0  0  0  0  0  0  0  0
   41.3760   -1.3501   47.2015 H   0  0  0  0  0  0  0  0  0  0  0  0
   41.1852   -0.2372   46.0218 H   0  0  0  0  0  0  0  0  0  0  0  0
   44.0152   -5.5617   47.0225 H   0  0  0  0  0  0  0  0  0  0  0  0
   42.4861   -7.3588   46.8338 H   0  0  0  0  0  0  0  0  0  0  0  0
   42.1642   -3.6279   43.8901 H   0  0  0  0  0  0  0  0  0  0  0  0
   37.2732   -3.9608   42.6863 H   0  0  0  0  0  0  0  0  0  0  0  0
   35.4578   -3.7932   41.1594 H   0  0  0  0  0  0  0  0  0  0  0  0
   34.5577   -4.9599   38.5462 H   0  0  0  0  0  0  0  0  0  0  0  0
   35.6421   -6.6630   37.0959 H   0  0  0  0  0  0  0  0  0  0  0  0
   37.7648   -7.3604   38.1535 H   0  0  0  0  0  0  0  0  0  0  0  0
   45.2943   -3.2086   42.7741 H   0  0  0  0  0  0  0  0  0  0  0  0
   43.7830   -2.5381   42.8941 H   0  0  0  0  0  0  0  0  0  0  0  0
  1  2  1  0  0  0  0
  1 41  1  0  0  0  0
  1 42  1  0  0  0  0
  1 43  1  0  0  0  0
  2  3  2  0  0  0  0
  2  4  2  0  0  0  0
  2  5  1  0  0  0  0
  5  6  1  0  0  0  0
  5 40  1  0  0  0  0
  6  7  1  0  0  0  0
  6 44  1  0  0  0  0
  6 45  1  0  0  0  0
  7  8  1  0  0  0  0
  7 46  1  0  0  0  0
  7 47  1  0  0  0  0
  8  9  2  0  0  0  0
  8 12  1  0  0  0  0
  9 10  1  0  0  0  0
  9 40  1  0  0  0  0
 10 11  2  0  0  0  0
 10 22  1  0  0  0  0
 11 12  1  0  0  0  0
 12 13  1  0  0  0  0
 13 14  1  0  0  0  0
 13 48  1  0  0  0  0
 13 49  1  0  0  0  0
 14 15  1  0  0  0  0
 14 50  1  0  0  0  0
 14 51  1  0  0  0  0
 15 16  1  0  0  0  0
 15 52  1  0  0  0  0
 15 53  1  0  0  0  0
 16 17  1  0  0  0  0
 16 21  1  0  0  0  0
 16 54  1  0  0  0  0
 17 18  1  0  0  0  0
 17 55  1  0  0  0  0
 17 56  1  0  0  0  0
 18 19  1  0  0  0  0
 18 57  1  0  0  0  0
 18 58  1  0  0  0  0
 19 20  1  0  0  0  0
 20 21  1  0  0  0  0
 20 59  1  0  0  0  0
 20 60  1  0  0  0  0
 21 61  1  0  0  0  0
 21 62  1  0  0  0  0
 22 23  2  0  0  0  0
 22 27  1  0  0  0  0
 23 24  1  0  0  0  0
 23 63  1  0  0  0  0
 24 25  2  0  0  0  0
 24 64  1  0  0  0  0
 25 26  1  0  0  0  0
 25 39  1  0  0  0  0
 26 27  2  0  0  0  0
 26 28  1  0  0  0  0
 27 65  1  0  0  0  0
 28 29  3  0  0  0  0
 29 30  1  0  0  0  0
 30 31  2  0  0  0  0
 30 38  1  0  0  0  0
 31 32  1  0  0  0  0
 31 66  1  0  0  0  0
 32 33  2  0  0  0  0
 32 67  1  0  0  0  0
 33 34  1  0  0  0  0
 33 37  1  0  0  0  0
 34 35  2  0  0  0  0
 34 68  1  0  0  0  0
 35 36  1  0  0  0  0
 35 69  1  0  0  0  0
 36 37  1  0  0  0  0
 36 70  1  0  0  0  0
 37 38  2  0  0  0  0
 40 71  1  0  0  0  0
 40 72  1  0  0  0  0
M  CHG  1  16   1
M  END
