CatS_449:1_D
 OpenBabel12041818463D

 87 91  0  0  1  0  0  0  0  0999 V2000
   50.7042   -5.6365   35.6456 C   0  0  0  0  0  0  0  0  0  0  0  0
   51.5710   -4.4179   36.0095 C   0  0  0  0  0  0  0  0  0  0  0  0
   50.7031   -3.1994   36.3779 C   0  0  0  0  0  0  0  0  0  0  0  0
   49.8359   -3.4761   37.5785 N   0  3  0  0  0  0  0  0  0  0  0  0
   48.9369   -2.3412   38.0042 C   0  0  0  0  0  0  0  0  0  0  0  0
   48.7877   -2.1214   39.5065 C   0  0  0  0  0  0  0  0  0  0  0  0
   47.6062   -2.3106   40.1828 C   0  0  0  0  0  0  0  0  0  0  0  0
   47.5376   -2.0945   41.5547 C   0  0  0  0  0  0  0  0  0  0  0  0
   48.6744   -1.6915   42.2460 C   0  0  0  0  0  0  0  0  0  0  0  0
   49.8512   -1.5056   41.5698 C   0  0  0  0  0  0  0  0  0  0  0  0
   49.9097   -1.7177   40.2068 C   0  0  0  0  0  0  0  0  0  0  0  0
   51.4179   -1.4710   39.3743 Cl  0  0  0  0  0  0  0  0  0  0  0  0
   46.2980   -2.2757   42.2644 C   0  0  0  0  0  0  0  0  0  0  0  0
   45.2591   -2.4210   42.8870 C   0  0  0  0  0  0  0  0  0  0  0  0
   44.0530   -2.5827   43.6570 C   0  0  0  0  0  0  0  0  0  0  0  0
   43.4005   -3.8085   43.6189 C   0  0  0  0  0  0  0  0  0  0  0  0
   42.2476   -4.0211   44.3488 C   0  0  0  0  0  0  0  0  0  0  0  0
   41.7482   -2.9774   45.1141 C   0  0  0  0  0  0  0  0  0  0  0  0
   42.3880   -1.7577   45.1570 C   0  0  0  0  0  0  0  0  0  0  0  0
   43.5391   -1.5497   44.4358 C   0  0  0  0  0  0  0  0  0  0  0  0
   44.3474   -0.0101   44.4974 Cl  0  0  0  0  0  0  0  0  0  0  0  0
   41.5533   -5.3001   44.3333 C   0  0  0  0  0  0  0  0  0  0  0  0
   40.5363   -5.7574   43.4620 C   0  0  0  0  0  0  0  0  0  0  0  0
   40.2889   -7.0005   43.8887 C   0  0  0  0  0  0  0  0  0  0  0  0
   41.0694   -7.3592   44.9423 N   0  0  0  0  0  0  0  0  0  0  0  0
   41.8292   -6.2662   45.1818 N   0  0  0  0  0  0  0  0  0  0  0  0
   41.2433   -8.6462   45.6332 C   0  0  0  0  0  0  0  0  0  0  0  0
   40.0298   -9.2875   46.3407 C   0  0  0  0  0  0  0  0  0  0  0  0
   40.2127  -10.8083   46.5384 C   0  0  0  0  0  0  0  0  0  0  0  0
   40.0373  -11.6050   45.2663 N   0  3  2  0  0  0  0  0  0  0  0  0
   38.6209  -11.5721   44.7359 C   0  0  0  0  0  0  0  0  0  0  0  0
   38.5181  -12.3917   43.4350 C   0  0  0  0  0  0  0  0  0  0  0  0
   39.0216  -13.7263   43.6307 O   0  0  0  0  0  0  0  0  0  0  0  0
   40.4104  -13.7374   44.0142 C   0  0  0  0  0  0  0  0  0  0  0  0
   40.6163  -13.0037   45.3546 C   0  0  2  0  0  0  0  0  0  0  0  0
   40.0085  -13.8584   46.4858 C   0  0  0  0  0  0  0  0  0  0  0  0
   39.2372   -7.8792   43.2305 C   0  0  0  0  0  0  0  0  0  0  0  0
   38.9941   -7.4722   41.7614 C   0  0  0  0  0  0  0  0  0  0  0  0
   38.8235   -6.0086   41.6630 N   0  0  0  0  0  0  0  0  0  0  0  0
   39.8259   -5.1125   42.2776 C   0  0  0  0  0  0  0  0  0  0  0  0
   37.7669   -5.4958   41.0057 C   0  0  0  0  0  0  0  0  0  0  0  0
   36.8573   -6.1464   40.5091 O   0  0  0  0  0  0  0  0  0  0  0  0
   37.6529   -4.0260   40.8558 C   0  0  0  0  0  0  0  0  0  0  0  0
   38.1338   -3.4796   39.8733 O   0  0  0  0  0  0  0  0  0  0  0  0
   37.0235   -3.3910   41.8529 N   0  0  0  0  0  0  0  0  0  0  0  0
   41.5878  -12.8887   45.5621 H   0  0  0  0  0  0  0  0  0  0  0  0
   49.9462   -5.3357   35.0668 H   0  0  0  0  0  0  0  0  0  0  0  0
   51.2569   -6.3094   35.1539 H   0  0  0  0  0  0  0  0  0  0  0  0
   50.3463   -6.0562   36.4796 H   0  0  0  0  0  0  0  0  0  0  0  0
   52.1498   -4.1837   35.2284 H   0  0  0  0  0  0  0  0  0  0  0  0
   52.1299   -4.6558   36.8039 H   0  0  0  0  0  0  0  0  0  0  0  0
   50.1194   -2.9681   35.5996 H   0  0  0  0  0  0  0  0  0  0  0  0
   51.3125   -2.4394   36.6036 H   0  0  0  0  0  0  0  0  0  0  0  0
   50.3774   -3.6995   38.2760 H   0  0  0  0  0  0  0  0  0  0  0  0
   49.3395   -4.2262   37.4487 H   0  0  0  0  0  0  0  0  0  0  0  0
   48.0268   -2.5145   37.6277 H   0  0  0  0  0  0  0  0  0  0  0  0
   49.3746   -1.5115   37.6579 H   0  0  0  0  0  0  0  0  0  0  0  0
   46.7906   -2.6055   39.6849 H   0  0  0  0  0  0  0  0  0  0  0  0
   48.6332   -1.5378   43.2333 H   0  0  0  0  0  0  0  0  0  0  0  0
   50.6702   -1.2155   42.0648 H   0  0  0  0  0  0  0  0  0  0  0  0
   43.7707   -4.5469   43.0552 H   0  0  0  0  0  0  0  0  0  0  0  0
   40.9104   -3.1123   45.6432 H   0  0  0  0  0  0  0  0  0  0  0  0
   42.0122   -1.0191   45.7166 H   0  0  0  0  0  0  0  0  0  0  0  0
   41.9529   -8.5147   46.3254 H   0  0  0  0  0  0  0  0  0  0  0  0
   41.4542   -9.2871   44.8951 H   0  0  0  0  0  0  0  0  0  0  0  0
   39.2110   -9.1272   45.7894 H   0  0  0  0  0  0  0  0  0  0  0  0
   39.9422   -8.8682   47.2443 H   0  0  0  0  0  0  0  0  0  0  0  0
   39.5416  -11.1251   47.2086 H   0  0  0  0  0  0  0  0  0  0  0  0
   41.1519  -10.9543   46.8490 H   0  0  0  0  0  0  0  0  0  0  0  0
   40.5465  -11.1806   44.6398 H   0  0  0  0  0  0  0  0  0  0  0  0
   38.3571  -10.6249   44.5539 H   0  0  0  0  0  0  0  0  0  0  0  0
   38.0085  -11.9701   45.4190 H   0  0  0  0  0  0  0  0  0  0  0  0
   39.0494  -11.9399   42.7183 H   0  0  0  0  0  0  0  0  0  0  0  0
   37.5563  -12.4492   43.1676 H   0  0  0  0  0  0  0  0  0  0  0  0
   40.9513  -13.2862   43.3045 H   0  0  0  0  0  0  0  0  0  0  0  0
   40.7045  -14.6871   44.1226 H   0  0  0  0  0  0  0  0  0  0  0  0
   39.6207  -14.6916   46.0918 H   0  0  0  0  0  0  0  0  0  0  0  0
   40.7192  -14.0979   47.1474 H   0  0  0  0  0  0  0  0  0  0  0  0
   39.2917  -13.3397   46.9517 H   0  0  0  0  0  0  0  0  0  0  0  0
   38.3798   -7.7973   43.7386 H   0  0  0  0  0  0  0  0  0  0  0  0
   39.5674   -8.8231   43.2415 H   0  0  0  0  0  0  0  0  0  0  0  0
   38.1709   -7.9275   41.4222 H   0  0  0  0  0  0  0  0  0  0  0  0
   39.7824   -7.7468   41.2107 H   0  0  0  0  0  0  0  0  0  0  0  0
   40.5071   -4.8678   41.5876 H   0  0  0  0  0  0  0  0  0  0  0  0
   39.3429   -4.3049   42.6161 H   0  0  0  0  0  0  0  0  0  0  0  0
   36.7005   -3.8487   42.5317 H   0  0  0  0  0  0  0  0  0  0  0  0
   36.9329   -2.5160   41.8295 H   0  0  0  0  0  0  0  0  0  0  0  0
  1  2  1  0  0  0  0
  1 47  1  0  0  0  0
  1 48  1  0  0  0  0
  1 49  1  0  0  0  0
  2  3  1  0  0  0  0
  2 50  1  0  0  0  0
  2 51  1  0  0  0  0
  3  4  1  0  0  0  0
  3 52  1  0  0  0  0
  3 53  1  0  0  0  0
  4  5  1  0  0  0  0
  4 54  1  0  0  0  0
  4 55  1  0  0  0  0
  5  6  1  0  0  0  0
  5 56  1  0  0  0  0
  5 57  1  0  0  0  0
  6  7  2  0  0  0  0
  6 11  1  0  0  0  0
  7  8  1  0  0  0  0
  7 58  1  0  0  0  0
  8  9  2  0  0  0  0
  8 13  1  0  0  0  0
  9 10  1  0  0  0  0
  9 59  1  0  0  0  0
 10 11  2  0  0  0  0
 10 60  1  0  0  0  0
 11 12  1  0  0  0  0
 13 14  3  0  0  0  0
 14 15  1  0  0  0  0
 15 16  2  0  0  0  0
 15 20  1  0  0  0  0
 16 17  1  0  0  0  0
 16 61  1  0  0  0  0
 17 18  2  0  0  0  0
 17 22  1  0  0  0  0
 18 19  1  0  0  0  0
 18 62  1  0  0  0  0
 19 20  2  0  0  0  0
 19 63  1  0  0  0  0
 20 21  1  0  0  0  0
 22 23  1  0  0  0  0
 22 26  2  0  0  0  0
 23 24  2  0  0  0  0
 23 40  1  0  0  0  0
 24 25  1  0  0  0  0
 24 37  1  0  0  0  0
 25 26  1  0  0  0  0
 25 27  1  0  0  0  0
 27 28  1  0  0  0  0
 27 64  1  0  0  0  0
 27 65  1  0  0  0  0
 28 29  1  0  0  0  0
 28 66  1  0  0  0  0
 28 67  1  0  0  0  0
 29 30  1  0  0  0  0
 29 68  1  0  0  0  0
 29 69  1  0  0  0  0
 30 31  1  0  0  0  0
 30 35  1  0  0  0  0
 30 70  1  6  0  0  0
 31 32  1  0  0  0  0
 31 71  1  0  0  0  0
 31 72  1  0  0  0  0
 32 33  1  0  0  0  0
 32 73  1  0  0  0  0
 32 74  1  0  0  0  0
 33 34  1  0  0  0  0
 34 35  1  0  0  0  0
 34 75  1  0  0  0  0
 34 76  1  0  0  0  0
 35 36  1  0  0  0  0
 35 46  1  1  0  0  0
 36 77  1  0  0  0  0
 36 78  1  0  0  0  0
 36 79  1  0  0  0  0
 37 38  1  0  0  0  0
 37 80  1  0  0  0  0
 37 81  1  0  0  0  0
 38 39  1  0  0  0  0
 38 82  1  0  0  0  0
 38 83  1  0  0  0  0
 39 40  1  0  0  0  0
 39 41  1  0  0  0  0
 40 84  1  0  0  0  0
 40 85  1  0  0  0  0
 41 42  2  0  0  0  0
 41 43  1  0  0  0  0
 43 44  2  0  0  0  0
 43 45  1  0  0  0  0
 45 86  1  0  0  0  0
 45 87  1  0  0  0  0
M  CHG  2   4   1  30   1
M  END
