CatS_191:1_D
 OpenBabel12041818463D

103107  0  0  1  0  0  0  0  0999 V2000
   52.6655   -2.5996   36.0965 C   0  0  0  0  0  0  0  0  0  0  0  0
   51.4302   -2.3553   36.9790 C   0  0  1  0  0  0  0  0  0  0  0  0
   50.7314   -3.6955   37.2535 C   0  0  0  0  0  0  0  0  0  0  0  0
   49.3904   -3.4294   37.9677 C   0  0  0  0  0  0  0  0  0  0  0  0
   49.4615   -2.3257   39.0044 N   0  3  2  0  0  0  0  0  0  0  0  0
   50.8690   -2.0540   39.4796 C   0  0  0  0  0  0  0  0  0  0  0  0
   51.8168   -1.6698   38.3137 C   0  0  0  0  0  0  0  0  0  0  0  0
   48.4810   -2.6031   40.1147 C   0  0  0  0  0  0  0  0  0  0  0  0
   48.8997   -2.2951   41.5690 C   0  0  0  0  0  0  0  0  0  0  0  0
   47.6729   -1.2142   42.3858 S   0  0  0  0  0  0  0  0  0  0  0  0
   46.0106   -1.8821   42.6297 C   0  0  0  0  0  0  0  0  0  0  0  0
   45.7596   -2.5368   43.8235 C   0  0  0  0  0  0  0  0  0  0  0  0
   44.4967   -3.0355   44.1151 C   0  0  0  0  0  0  0  0  0  0  0  0
   43.5212   -2.9215   43.1443 C   0  0  0  0  0  0  0  0  0  0  0  0
   43.7627   -2.2711   41.9663 C   0  0  0  0  0  0  0  0  0  0  0  0
   44.9915   -1.7159   41.6969 C   0  0  0  0  0  0  0  0  0  0  0  0
   45.0150   -0.9779   40.3637 C   0  0  0  0  0  0  0  0  0  0  0  0
   45.6883   -1.6728   39.3622 F   0  0  0  0  0  0  0  0  0  0  0  0
   43.7364   -0.7723   39.8645 F   0  0  0  0  0  0  0  0  0  0  0  0
   45.6637    0.2432   40.5001 F   0  0  0  0  0  0  0  0  0  0  0  0
   44.1069   -3.6675   45.3706 C   0  0  0  0  0  0  0  0  0  0  0  0
   43.7670   -3.0074   46.5743 C   0  0  0  0  0  0  0  0  0  0  0  0
   43.4123   -4.0035   47.3930 C   0  0  0  0  0  0  0  0  0  0  0  0
   43.5009   -5.2381   46.8150 N   0  0  0  0  0  0  0  0  0  0  0  0
   43.9668   -4.9637   45.5615 N   0  0  0  0  0  0  0  0  0  0  0  0
   42.9530   -6.5588   47.2099 C   0  0  0  0  0  0  0  0  0  0  0  0
   42.4482   -7.7674   46.3708 C   0  0  2  0  0  0  0  0  0  0  0  0
   40.9894   -7.6133   45.8978 C   0  0  0  0  0  0  0  0  0  0  0  0
   40.6636   -7.7362   44.4312 N   0  3  2  0  0  0  0  0  0  0  0  0
   40.5874   -6.3509   43.8338 C   0  0  0  0  0  0  0  0  0  0  0  0
   40.2720   -6.3726   42.3304 C   0  0  0  0  0  0  0  0  0  0  0  0
   38.9612   -7.1434   42.0886 C   0  0  2  0  0  0  0  0  0  0  0  0
   39.1531   -8.5864   42.6063 C   0  0  0  0  0  0  0  0  0  0  0  0
   39.4354   -8.5604   44.1269 C   0  0  0  0  0  0  0  0  0  0  0  0
   38.5918   -6.9293   40.6787 N   0  0  0  0  0  0  0  0  0  0  0  0
   37.3433   -7.1819   40.2465 C   0  0  0  0  0  0  0  0  0  0  0  0
   36.4807   -7.7670   40.8861 O   0  0  0  0  0  0  0  0  0  0  0  0
   37.0584   -6.6358   38.8580 C   0  0  0  0  0  0  0  0  0  0  0  0
   37.0876   -5.0973   38.7946 C   0  0  0  0  0  0  0  0  0  0  0  0
   35.7092   -7.1412   38.3125 C   0  0  0  0  0  0  0  0  0  0  0  0
   38.0957   -7.1427   38.0067 O   0  0  0  0  0  0  0  0  0  0  0  0
   42.6068   -8.9978   47.0918 O   0  0  0  0  0  0  0  0  0  0  0  0
   42.9287   -3.6861   48.8000 C   0  0  0  0  0  0  0  0  0  0  0  0
   43.1101   -2.2134   49.2221 C   0  0  0  0  0  0  0  0  0  0  0  0
   42.7867   -1.3123   48.1048 N   0  0  0  0  0  0  0  0  0  0  0  0
   43.7596   -1.5403   47.0184 C   0  0  0  0  0  0  0  0  0  0  0  0
   42.4005    0.2037   48.5130 S   0  0  0  0  0  0  0  0  0  0  0  0
   41.8867    0.8446   47.3449 O   0  0  0  0  0  0  0  0  0  0  0  0
   41.2307    0.2249   49.3298 O   0  0  0  0  0  0  0  0  0  0  0  0
   43.6907    1.2446   49.2437 C   0  0  0  0  0  0  0  0  0  0  0  0
   43.0193   -7.7892   45.5501 H   0  0  0  0  0  0  0  0  0  0  0  0
   52.3697   -2.7228   35.1492 H   0  0  0  0  0  0  0  0  0  0  0  0
   53.2842   -1.8163   36.1570 H   0  0  0  0  0  0  0  0  0  0  0  0
   53.1461   -3.4188   36.4094 H   0  0  0  0  0  0  0  0  0  0  0  0
   50.8073   -1.7420   36.4934 H   0  0  0  0  0  0  0  0  0  0  0  0
   51.3141   -4.2663   37.8320 H   0  0  0  0  0  0  0  0  0  0  0  0
   50.5630   -4.1703   36.3897 H   0  0  0  0  0  0  0  0  0  0  0  0
   49.0989   -4.2725   38.4196 H   0  0  0  0  0  0  0  0  0  0  0  0
   48.7411   -3.1306   37.2682 H   0  0  0  0  0  0  0  0  0  0  0  0
   49.1889   -1.5569   38.5984 H   0  0  0  0  0  0  0  0  0  0  0  0
   51.2229   -2.8744   39.9287 H   0  0  0  0  0  0  0  0  0  0  0  0
   50.8352   -1.2813   40.1135 H   0  0  0  0  0  0  0  0  0  0  0  0
   51.7862   -0.6784   38.1864 H   0  0  0  0  0  0  0  0  0  0  0  0
   52.7355   -1.9804   38.5577 H   0  0  0  0  0  0  0  0  0  0  0  0
   48.2531   -3.5758   40.0714 H   0  0  0  0  0  0  0  0  0  0  0  0
   47.7306   -1.9656   39.9399 H   0  0  0  0  0  0  0  0  0  0  0  0
   49.7901   -1.8399   41.5656 H   0  0  0  0  0  0  0  0  0  0  0  0
   48.9524   -3.1559   42.0752 H   0  0  0  0  0  0  0  0  0  0  0  0
   46.4994   -2.6523   44.4863 H   0  0  0  0  0  0  0  0  0  0  0  0
   42.6197   -3.3228   43.3063 H   0  0  0  0  0  0  0  0  0  0  0  0
   43.0318   -2.1977   41.2878 H   0  0  0  0  0  0  0  0  0  0  0  0
   42.1696   -6.3265   47.7864 H   0  0  0  0  0  0  0  0  0  0  0  0
   43.8249   -6.9668   47.4805 H   0  0  0  0  0  0  0  0  0  0  0  0
   40.6822   -6.7079   46.1908 H   0  0  0  0  0  0  0  0  0  0  0  0
   40.5283   -8.4021   46.3043 H   0  0  0  0  0  0  0  0  0  0  0  0
   41.3619   -8.1605   44.0266 H   0  0  0  0  0  0  0  0  0  0  0  0
   41.4649   -5.8918   43.9729 H   0  0  0  0  0  0  0  0  0  0  0  0
   39.8429   -5.8646   44.2911 H   0  0  0  0  0  0  0  0  0  0  0  0
   41.0193   -6.8192   41.8385 H   0  0  0  0  0  0  0  0  0  0  0  0
   40.1702   -5.4346   41.9991 H   0  0  0  0  0  0  0  0  0  0  0  0
   38.1629   -6.8263   42.6006 H   0  0  0  0  0  0  0  0  0  0  0  0
   39.9222   -9.0126   42.1299 H   0  0  0  0  0  0  0  0  0  0  0  0
   38.3214   -9.1139   42.4336 H   0  0  0  0  0  0  0  0  0  0  0  0
   38.6486   -8.1665   44.6021 H   0  0  0  0  0  0  0  0  0  0  0  0
   39.5937   -9.4975   44.4381 H   0  0  0  0  0  0  0  0  0  0  0  0
   39.1833   -6.5863   40.1253 H   0  0  0  0  0  0  0  0  0  0  0  0
   37.8202   -4.8107   38.1771 H   0  0  0  0  0  0  0  0  0  0  0  0
   36.2102   -4.7563   38.4573 H   0  0  0  0  0  0  0  0  0  0  0  0
   37.2516   -4.7258   39.7084 H   0  0  0  0  0  0  0  0  0  0  0  0
   35.8752   -7.6993   37.4994 H   0  0  0  0  0  0  0  0  0  0  0  0
   35.2473   -7.6900   39.0092 H   0  0  0  0  0  0  0  0  0  0  0  0
   35.1291   -6.3620   38.0746 H   0  0  0  0  0  0  0  0  0  0  0  0
   38.3261   -6.4869   37.2793 H   0  0  0  0  0  0  0  0  0  0  0  0
   42.1285   -9.7557   46.6342 H   0  0  0  0  0  0  0  0  0  0  0  0
   43.4337   -4.2622   49.4426 H   0  0  0  0  0  0  0  0  0  0  0  0
   41.9446   -3.8638   48.8088 H   0  0  0  0  0  0  0  0  0  0  0  0
   44.0580   -2.0649   49.5039 H   0  0  0  0  0  0  0  0  0  0  0  0
   42.4917   -2.0172   49.9830 H   0  0  0  0  0  0  0  0  0  0  0  0
   43.5204   -0.9635   46.2373 H   0  0  0  0  0  0  0  0  0  0  0  0
   44.6709   -1.3100   47.3597 H   0  0  0  0  0  0  0  0  0  0  0  0
   43.3440    1.6460   50.0914 H   0  0  0  0  0  0  0  0  0  0  0  0
   44.5005    0.6915   49.4395 H   0  0  0  0  0  0  0  0  0  0  0  0
   43.9400    1.9711   48.6033 H   0  0  0  0  0  0  0  0  0  0  0  0
  1  2  1  0  0  0  0
  1 52  1  0  0  0  0
  1 53  1  0  0  0  0
  1 54  1  0  0  0  0
  2  3  1  0  0  0  0
  2  7  1  0  0  0  0
  2 55  1  6  0  0  0
  3  4  1  0  0  0  0
  3 56  1  0  0  0  0
  3 57  1  0  0  0  0
  4  5  1  0  0  0  0
  4 58  1  0  0  0  0
  4 59  1  0  0  0  0
  5  6  1  0  0  0  0
  5  8  1  0  0  0  0
  5 60  1  6  0  0  0
  6  7  1  0  0  0  0
  6 61  1  0  0  0  0
  6 62  1  0  0  0  0
  7 63  1  0  0  0  0
  7 64  1  0  0  0  0
  8  9  1  0  0  0  0
  8 65  1  0  0  0  0
  8 66  1  0  0  0  0
  9 10  1  0  0  0  0
  9 67  1  0  0  0  0
  9 68  1  0  0  0  0
 10 11  1  0  0  0  0
 11 12  2  0  0  0  0
 11 16  1  0  0  0  0
 12 13  1  0  0  0  0
 12 69  1  0  0  0  0
 13 14  2  0  0  0  0
 13 21  1  0  0  0  0
 14 15  1  0  0  0  0
 14 70  1  0  0  0  0
 15 16  2  0  0  0  0
 15 71  1  0  0  0  0
 16 17  1  0  0  0  0
 17 18  1  0  0  0  0
 17 19  1  0  0  0  0
 17 20  1  0  0  0  0
 21 22  1  0  0  0  0
 21 25  2  0  0  0  0
 22 23  2  0  0  0  0
 22 46  1  0  0  0  0
 23 24  1  0  0  0  0
 23 43  1  0  0  0  0
 24 25  1  0  0  0  0
 24 26  1  0  0  0  0
 26 27  1  0  0  0  0
 26 72  1  0  0  0  0
 26 73  1  0  0  0  0
 27 28  1  0  0  0  0
 27 42  1  0  0  0  0
 27 51  1  6  0  0  0
 28 29  1  0  0  0  0
 28 74  1  0  0  0  0
 28 75  1  0  0  0  0
 29 30  1  0  0  0  0
 29 34  1  0  0  0  0
 29 76  1  6  0  0  0
 30 31  1  0  0  0  0
 30 77  1  0  0  0  0
 30 78  1  0  0  0  0
 31 32  1  0  0  0  0
 31 79  1  0  0  0  0
 31 80  1  0  0  0  0
 32 33  1  0  0  0  0
 32 35  1  0  0  0  0
 32 81  1  1  0  0  0
 33 34  1  0  0  0  0
 33 82  1  0  0  0  0
 33 83  1  0  0  0  0
 34 84  1  0  0  0  0
 34 85  1  0  0  0  0
 35 36  1  0  0  0  0
 35 86  1  0  0  0  0
 36 37  2  0  0  0  0
 36 38  1  0  0  0  0
 38 39  1  0  0  0  0
 38 40  1  0  0  0  0
 38 41  1  0  0  0  0
 39 87  1  0  0  0  0
 39 88  1  0  0  0  0
 39 89  1  0  0  0  0
 40 90  1  0  0  0  0
 40 91  1  0  0  0  0
 40 92  1  0  0  0  0
 41 93  1  0  0  0  0
 42 94  1  0  0  0  0
 43 44  1  0  0  0  0
 43 95  1  0  0  0  0
 43 96  1  0  0  0  0
 44 45  1  0  0  0  0
 44 97  1  0  0  0  0
 44 98  1  0  0  0  0
 45 46  1  0  0  0  0
 45 47  1  0  0  0  0
 46 99  1  0  0  0  0
 46100  1  0  0  0  0
 47 48  2  0  0  0  0
 47 49  2  0  0  0  0
 47 50  1  0  0  0  0
 50101  1  0  0  0  0
 50102  1  0  0  0  0
 50103  1  0  0  0  0
M  CHG  2   5   1  29   1
M  END
