CatS_378:1_D
 OpenBabel12041818463D

 92 97  0  0  0  0  0  0  0  0999 V2000
   40.6412  -10.8477   45.8520 C   0  0  0  0  0  0  0  0  0  0  0  0
   39.6683   -9.4859   46.5486 S   0  0  0  0  0  0  0  0  0  0  0  0
   38.3264   -9.6127   46.0804 O   0  0  0  0  0  0  0  0  0  0  0  0
   39.9119   -9.4414   47.9543 O   0  0  0  0  0  0  0  0  0  0  0  0
   40.2407   -8.0918   45.9453 N   0  0  0  0  0  0  0  0  0  0  0  0
   41.6281   -7.7345   46.3092 C   0  0  0  0  0  0  0  0  0  0  0  0
   41.9043   -6.2253   46.1277 C   0  0  0  0  0  0  0  0  0  0  0  0
   41.3538   -5.7270   44.8051 C   0  0  0  0  0  0  0  0  0  0  0  0
   40.5039   -6.4459   44.0697 C   0  0  0  0  0  0  0  0  0  0  0  0
   40.2606   -5.6234   42.9453 C   0  0  0  0  0  0  0  0  0  0  0  0
   40.9602   -4.5139   43.0807 N   0  0  0  0  0  0  0  0  0  0  0  0
   41.6582   -4.5342   44.2397 N   0  0  0  0  0  0  0  0  0  0  0  0
   42.5416   -3.4646   44.7215 C   0  0  0  0  0  0  0  0  0  0  0  0
   41.8143   -2.1985   45.2066 C   0  0  0  0  0  0  0  0  0  0  0  0
   42.8088   -1.1030   45.6467 C   0  0  0  0  0  0  0  0  0  0  0  0
   42.1426    0.1082   46.2545 N   0  3  0  0  0  0  0  0  0  0  0  0
   43.1196    1.0402   46.9258 C   0  0  0  0  0  0  0  0  0  0  0  0
   42.3679    2.2677   47.4792 C   0  0  0  0  0  0  0  0  0  0  0  0
   41.2942    1.8607   48.3499 O   0  0  0  0  0  0  0  0  0  0  0  0
   40.3246    1.0347   47.6775 C   0  0  0  0  0  0  0  0  0  0  0  0
   40.9913   -0.2532   47.1576 C   0  0  0  0  0  0  0  0  0  0  0  0
   39.4083   -5.8804   41.7975 C   0  0  0  0  0  0  0  0  0  0  0  0
   38.1421   -5.3197   41.7545 C   0  0  0  0  0  0  0  0  0  0  0  0
   37.3142   -5.5510   40.6818 C   0  0  0  0  0  0  0  0  0  0  0  0
   37.7385   -6.3423   39.6361 C   0  0  0  0  0  0  0  0  0  0  0  0
   38.9995   -6.9031   39.6617 C   0  0  0  0  0  0  0  0  0  0  0  0
   39.8252   -6.6694   40.7391 C   0  0  0  0  0  0  0  0  0  0  0  0
   39.4745   -7.7911   38.5214 C   0  0  0  0  0  0  0  0  0  0  0  0
   40.9030   -7.5068   38.0037 C   0  0  0  0  0  0  0  0  0  0  0  0
   41.5922   -8.6793   37.3226 C   0  0  0  0  0  0  0  0  0  0  0  0
   42.7107   -8.4648   36.5470 C   0  0  0  0  0  0  0  0  0  0  0  0
   43.3264   -9.5178   35.9103 C   0  0  0  0  0  0  0  0  0  0  0  0
   42.8223  -10.7910   36.0433 C   0  0  0  0  0  0  0  0  0  0  0  0
   41.7052  -11.0157   36.8171 C   0  0  0  0  0  0  0  0  0  0  0  0
   41.0972   -9.9575   37.4572 C   0  0  0  0  0  0  0  0  0  0  0  0
   41.1134  -12.4119   36.9424 C   0  0  0  0  0  0  0  0  0  0  0  0
   39.6415  -12.5158   36.6296 N   0  3  0  0  0  0  0  0  0  0  0  0
   39.2866  -12.9173   35.2197 C   0  0  0  0  0  0  0  0  0  0  0  0
   37.8568  -12.5314   34.8659 C   0  0  0  0  0  0  0  0  0  0  0  0
   37.1826  -11.6386   35.6701 C   0  0  0  0  0  0  0  0  0  0  0  0
   35.8924  -11.2660   35.3693 C   0  0  0  0  0  0  0  0  0  0  0  0
   35.2681  -11.7858   34.2591 C   0  0  0  0  0  0  0  0  0  0  0  0
   35.9348  -12.6803   33.4535 C   0  0  0  0  0  0  0  0  0  0  0  0
   37.2246  -13.0532   33.7579 C   0  0  0  0  0  0  0  0  0  0  0  0
   36.6755   -6.6339   38.2882 Cl  0  0  0  0  0  0  0  0  0  0  0  0
   40.0235   -7.8251   44.5035 C   0  0  0  0  0  0  0  0  0  0  0  0
   41.3344  -10.4716   45.2372 H   0  0  0  0  0  0  0  0  0  0  0  0
   41.0855  -11.3571   46.5891 H   0  0  0  0  0  0  0  0  0  0  0  0
   40.0403  -11.4662   45.3454 H   0  0  0  0  0  0  0  0  0  0  0  0
   42.2585   -8.2524   45.7309 H   0  0  0  0  0  0  0  0  0  0  0  0
   41.7608   -7.9573   47.2749 H   0  0  0  0  0  0  0  0  0  0  0  0
   42.8912   -6.0664   46.1547 H   0  0  0  0  0  0  0  0  0  0  0  0
   41.4515   -5.7276   46.8674 H   0  0  0  0  0  0  0  0  0  0  0  0
   43.1565   -3.2072   43.9760 H   0  0  0  0  0  0  0  0  0  0  0  0
   43.0234   -3.8336   45.5164 H   0  0  0  0  0  0  0  0  0  0  0  0
   41.2270   -2.4364   45.9800 H   0  0  0  0  0  0  0  0  0  0  0  0
   41.2728   -1.8394   44.4464 H   0  0  0  0  0  0  0  0  0  0  0  0
   43.3337   -0.8106   44.8472 H   0  0  0  0  0  0  0  0  0  0  0  0
   43.3909   -1.5026   46.3548 H   0  0  0  0  0  0  0  0  0  0  0  0
   41.7861    0.5841   45.5645 H   0  0  0  0  0  0  0  0  0  0  0  0
   43.8063    1.3385   46.2628 H   0  0  0  0  0  0  0  0  0  0  0  0
   43.5706    0.5615   47.6790 H   0  0  0  0  0  0  0  0  0  0  0  0
   41.9930    2.7956   46.7171 H   0  0  0  0  0  0  0  0  0  0  0  0
   43.0099    2.8267   48.0040 H   0  0  0  0  0  0  0  0  0  0  0  0
   39.9339    1.5408   46.9087 H   0  0  0  0  0  0  0  0  0  0  0  0
   39.6022    0.7885   48.3236 H   0  0  0  0  0  0  0  0  0  0  0  0
   41.3274   -0.7929   47.9295 H   0  0  0  0  0  0  0  0  0  0  0  0
   40.3217   -0.7912   46.6457 H   0  0  0  0  0  0  0  0  0  0  0  0
   37.8284   -4.7430   42.5088 H   0  0  0  0  0  0  0  0  0  0  0  0
   36.4012   -5.1437   40.6599 H   0  0  0  0  0  0  0  0  0  0  0  0
   40.7388   -7.0756   40.7571 H   0  0  0  0  0  0  0  0  0  0  0  0
   38.8396   -7.6785   37.7570 H   0  0  0  0  0  0  0  0  0  0  0  0
   39.4988   -8.7201   38.8905 H   0  0  0  0  0  0  0  0  0  0  0  0
   41.4645   -7.2245   38.7815 H   0  0  0  0  0  0  0  0  0  0  0  0
   40.8077   -6.7990   37.3038 H   0  0  0  0  0  0  0  0  0  0  0  0
   43.0766   -7.5396   36.4462 H   0  0  0  0  0  0  0  0  0  0  0  0
   44.1399   -9.3577   35.3511 H   0  0  0  0  0  0  0  0  0  0  0  0
   43.2682  -11.5553   35.5772 H   0  0  0  0  0  0  0  0  0  0  0  0
   40.2896  -10.1192   38.0243 H   0  0  0  0  0  0  0  0  0  0  0  0
   41.2558  -12.7267   37.8808 H   0  0  0  0  0  0  0  0  0  0  0  0
   41.5811  -12.9735   36.2598 H   0  0  0  0  0  0  0  0  0  0  0  0
   39.2807  -13.1256   37.2023 H   0  0  0  0  0  0  0  0  0  0  0  0
   39.2186  -11.7386   36.8483 H   0  0  0  0  0  0  0  0  0  0  0  0
   39.3895  -13.9077   35.1278 H   0  0  0  0  0  0  0  0  0  0  0  0
   39.9012  -12.4356   34.5950 H   0  0  0  0  0  0  0  0  0  0  0  0
   37.6338  -11.2589   36.4777 H   0  0  0  0  0  0  0  0  0  0  0  0
   35.4089  -10.6177   35.9574 H   0  0  0  0  0  0  0  0  0  0  0  0
   34.3315  -11.5142   34.0379 H   0  0  0  0  0  0  0  0  0  0  0  0
   35.4822  -13.0597   32.6465 H   0  0  0  0  0  0  0  0  0  0  0  0
   37.7051  -13.7059   33.1722 H   0  0  0  0  0  0  0  0  0  0  0  0
   39.0455   -7.8995   44.3089 H   0  0  0  0  0  0  0  0  0  0  0  0
   40.5579   -8.4987   43.9931 H   0  0  0  0  0  0  0  0  0  0  0  0
  1  2  1  0  0  0  0
  1 47  1  0  0  0  0
  1 48  1  0  0  0  0
  1 49  1  0  0  0  0
  2  3  2  0  0  0  0
  2  4  2  0  0  0  0
  2  5  1  0  0  0  0
  5  6  1  0  0  0  0
  5 46  1  0  0  0  0
  6  7  1  0  0  0  0
  6 50  1  0  0  0  0
  6 51  1  0  0  0  0
  7  8  1  0  0  0  0
  7 52  1  0  0  0  0
  7 53  1  0  0  0  0
  8  9  2  0  0  0  0
  8 12  1  0  0  0  0
  9 10  1  0  0  0  0
  9 46  1  0  0  0  0
 10 11  2  0  0  0  0
 10 22  1  0  0  0  0
 11 12  1  0  0  0  0
 12 13  1  0  0  0  0
 13 14  1  0  0  0  0
 13 54  1  0  0  0  0
 13 55  1  0  0  0  0
 14 15  1  0  0  0  0
 14 56  1  0  0  0  0
 14 57  1  0  0  0  0
 15 16  1  0  0  0  0
 15 58  1  0  0  0  0
 15 59  1  0  0  0  0
 16 17  1  0  0  0  0
 16 21  1  0  0  0  0
 16 60  1  0  0  0  0
 17 18  1  0  0  0  0
 17 61  1  0  0  0  0
 17 62  1  0  0  0  0
 18 19  1  0  0  0  0
 18 63  1  0  0  0  0
 18 64  1  0  0  0  0
 19 20  1  0  0  0  0
 20 21  1  0  0  0  0
 20 65  1  0  0  0  0
 20 66  1  0  0  0  0
 21 67  1  0  0  0  0
 21 68  1  0  0  0  0
 22 23  2  0  0  0  0
 22 27  1  0  0  0  0
 23 24  1  0  0  0  0
 23 69  1  0  0  0  0
 24 25  2  0  0  0  0
 24 70  1  0  0  0  0
 25 26  1  0  0  0  0
 25 45  1  0  0  0  0
 26 27  2  0  0  0  0
 26 28  1  0  0  0  0
 27 71  1  0  0  0  0
 28 29  1  0  0  0  0
 28 72  1  0  0  0  0
 28 73  1  0  0  0  0
 29 30  1  0  0  0  0
 29 74  1  0  0  0  0
 29 75  1  0  0  0  0
 30 31  2  0  0  0  0
 30 35  1  0  0  0  0
 31 32  1  0  0  0  0
 31 76  1  0  0  0  0
 32 33  2  0  0  0  0
 32 77  1  0  0  0  0
 33 34  1  0  0  0  0
 33 78  1  0  0  0  0
 34 35  2  0  0  0  0
 34 36  1  0  0  0  0
 35 79  1  0  0  0  0
 36 37  1  0  0  0  0
 36 80  1  0  0  0  0
 36 81  1  0  0  0  0
 37 38  1  0  0  0  0
 37 82  1  0  0  0  0
 37 83  1  0  0  0  0
 38 39  1  0  0  0  0
 38 84  1  0  0  0  0
 38 85  1  0  0  0  0
 39 40  2  0  0  0  0
 39 44  1  0  0  0  0
 40 41  1  0  0  0  0
 40 86  1  0  0  0  0
 41 42  2  0  0  0  0
 41 87  1  0  0  0  0
 42 43  1  0  0  0  0
 42 88  1  0  0  0  0
 43 44  2  0  0  0  0
 43 89  1  0  0  0  0
 44 90  1  0  0  0  0
 46 91  1  0  0  0  0
 46 92  1  0  0  0  0
M  CHG  2  16   1  37   1
M  END
