CatS_392:1_D
 OpenBabel12041818463D

 94 99  0  0  1  0  0  0  0  0999 V2000
   38.0634  -12.4924   44.5015 C   0  0  0  0  0  0  0  0  0  0  0  0
   39.2258  -12.8024   45.4738 C   0  0  1  0  0  0  0  0  0  0  0  0
   40.3653  -13.4130   44.6230 C   0  0  0  0  0  0  0  0  0  0  0  0
   41.5740  -13.6219   45.3768 O   0  0  0  0  0  0  0  0  0  0  0  0
   42.0656  -12.4056   45.9669 C   0  0  0  0  0  0  0  0  0  0  0  0
   41.0407  -11.8555   46.9788 C   0  0  1  0  0  0  0  0  0  0  0  0
   39.7366  -11.5927   46.2445 N   0  3  1  0  0  0  0  0  0  0  0  0
   39.7227  -10.2892   45.4668 C   0  0  0  0  0  0  0  0  0  0  0  0
   40.2602   -9.0515   46.2274 C   0  0  0  0  0  0  0  0  0  0  0  0
   41.5969   -8.5050   45.6877 C   0  0  0  0  0  0  0  0  0  0  0  0
   41.4106   -7.2304   44.9749 N   0  0  0  0  0  0  0  0  0  0  0  0
   40.5230   -6.8770   44.0102 C   0  0  0  0  0  0  0  0  0  0  0  0
   40.6918   -5.6202   43.5856 C   0  0  0  0  0  0  0  0  0  0  0  0
   41.7857   -5.1566   44.3540 C   0  0  0  0  0  0  0  0  0  0  0  0
   42.1770   -6.1307   45.1462 N   0  0  0  0  0  0  0  0  0  0  0  0
   42.4418   -3.8596   44.3427 C   0  0  0  0  0  0  0  0  0  0  0  0
   42.0247   -2.7949   45.1339 C   0  0  0  0  0  0  0  0  0  0  0  0
   42.7066   -1.5966   45.1179 C   0  0  0  0  0  0  0  0  0  0  0  0
   43.8089   -1.4347   44.3131 C   0  0  0  0  0  0  0  0  0  0  0  0
   44.2242   -2.4839   43.4977 C   0  0  0  0  0  0  0  0  0  0  0  0
   43.5355   -3.6887   43.5240 C   0  0  0  0  0  0  0  0  0  0  0  0
   45.3549   -2.3485   42.6159 C   0  0  0  0  0  0  0  0  0  0  0  0
   46.3099   -2.2642   41.8614 C   0  0  0  0  0  0  0  0  0  0  0  0
   47.4325   -2.1912   40.9622 C   0  0  0  0  0  0  0  0  0  0  0  0
   47.2505   -1.8853   39.6181 C   0  0  0  0  0  0  0  0  0  0  0  0
   48.3351   -1.8155   38.7811 C   0  0  0  0  0  0  0  0  0  0  0  0
   49.6088   -2.0574   39.2576 C   0  0  0  0  0  0  0  0  0  0  0  0
   49.7884   -2.3733   40.5898 C   0  0  0  0  0  0  0  0  0  0  0  0
   48.7154   -2.4325   41.4416 C   0  0  0  0  0  0  0  0  0  0  0  0
   50.7912   -1.9948   38.2986 C   0  0  0  0  0  0  0  0  0  0  0  0
   50.4675   -2.3242   36.8597 N   0  3  0  0  0  0  0  0  0  0  0  0
   51.4623   -3.2045   36.1436 C   0  0  0  0  0  0  0  0  0  0  0  0
   51.0548   -4.6707   36.1260 C   0  0  0  0  0  0  0  0  0  0  0  0
   51.4252   -5.4840   35.0773 C   0  0  0  0  0  0  0  0  0  0  0  0
   51.0759   -6.8153   35.0725 C   0  0  0  0  0  0  0  0  0  0  0  0
   50.3519   -7.3422   36.1189 C   0  0  0  0  0  0  0  0  0  0  0  0
   49.9762   -6.5321   37.1671 C   0  0  0  0  0  0  0  0  0  0  0  0
   50.3293   -5.2019   37.1703 C   0  0  0  0  0  0  0  0  0  0  0  0
   49.9171   -9.0271   36.1198 Cl  0  0  0  0  0  0  0  0  0  0  0  0
   44.6724    0.0752   44.3097 Cl  0  0  0  0  0  0  0  0  0  0  0  0
   39.8418   -4.9576   42.5092 C   0  0  0  0  0  0  0  0  0  0  0  0
   38.8450   -5.8759   41.9157 N   0  0  0  0  0  0  0  0  0  0  0  0
   38.9906   -7.3409   42.0468 C   0  0  0  0  0  0  0  0  0  0  0  0
   39.4409   -7.7864   43.4555 C   0  0  0  0  0  0  0  0  0  0  0  0
   37.8044   -5.3788   41.2220 C   0  0  0  0  0  0  0  0  0  0  0  0
   36.9071   -6.0437   40.7221 O   0  0  0  0  0  0  0  0  0  0  0  0
   37.6878   -3.9145   41.0279 C   0  0  0  0  0  0  0  0  0  0  0  0
   38.1359   -3.4026   40.0122 O   0  0  0  0  0  0  0  0  0  0  0  0
   37.0965   -3.2447   42.0257 N   0  0  0  0  0  0  0  0  0  0  0  0
   40.9466  -12.8450   48.1644 C   0  0  0  0  0  0  0  0  0  0  0  0
   38.8909  -13.4300   46.1766 H   0  0  0  0  0  0  0  0  0  0  0  0
   41.3117  -10.9787   47.3763 H   0  0  0  0  0  0  0  0  0  0  0  0
   38.4426  -12.2082   43.6209 H   0  0  0  0  0  0  0  0  0  0  0  0
   37.4997  -13.3091   44.3777 H   0  0  0  0  0  0  0  0  0  0  0  0
   37.4965  -11.7595   44.8774 H   0  0  0  0  0  0  0  0  0  0  0  0
   40.5633  -12.7959   43.8615 H   0  0  0  0  0  0  0  0  0  0  0  0
   40.0543  -14.3074   44.3014 H   0  0  0  0  0  0  0  0  0  0  0  0
   42.2219  -11.7274   45.2488 H   0  0  0  0  0  0  0  0  0  0  0  0
   42.9238  -12.5968   46.4433 H   0  0  0  0  0  0  0  0  0  0  0  0
   39.1174  -11.4767   46.9025 H   0  0  0  0  0  0  0  0  0  0  0  0
   38.7788  -10.1010   45.1956 H   0  0  0  0  0  0  0  0  0  0  0  0
   40.3430  -10.4248   44.6942 H   0  0  0  0  0  0  0  0  0  0  0  0
   40.3864   -9.3027   47.1871 H   0  0  0  0  0  0  0  0  0  0  0  0
   39.5847   -8.3245   46.1035 H   0  0  0  0  0  0  0  0  0  0  0  0
   41.9944   -9.1754   45.0614 H   0  0  0  0  0  0  0  0  0  0  0  0
   42.2053   -8.3424   46.4645 H   0  0  0  0  0  0  0  0  0  0  0  0
   41.2217   -2.8994   45.7207 H   0  0  0  0  0  0  0  0  0  0  0  0
   42.3973   -0.8409   45.6951 H   0  0  0  0  0  0  0  0  0  0  0  0
   43.8377   -4.4426   42.9406 H   0  0  0  0  0  0  0  0  0  0  0  0
   46.3311   -1.7165   39.2626 H   0  0  0  0  0  0  0  0  0  0  0  0
   48.2024   -1.5873   37.8165 H   0  0  0  0  0  0  0  0  0  0  0  0
   50.7078   -2.5603   40.9359 H   0  0  0  0  0  0  0  0  0  0  0  0
   48.8555   -2.6493   42.4077 H   0  0  0  0  0  0  0  0  0  0  0  0
   51.4854   -2.6399   38.6180 H   0  0  0  0  0  0  0  0  0  0  0  0
   51.1024   -1.0445   38.3021 H   0  0  0  0  0  0  0  0  0  0  0  0
   49.6601   -2.7466   36.8457 H   0  0  0  0  0  0  0  0  0  0  0  0
   50.3213   -1.5604   36.3850 H   0  0  0  0  0  0  0  0  0  0  0  0
   52.3485   -3.1230   36.5999 H   0  0  0  0  0  0  0  0  0  0  0  0
   51.5047   -2.8958   35.1933 H   0  0  0  0  0  0  0  0  0  0  0  0
   51.9508   -5.1050   34.3157 H   0  0  0  0  0  0  0  0  0  0  0  0
   51.3480   -7.4005   34.3086 H   0  0  0  0  0  0  0  0  0  0  0  0
   49.4467   -6.9105   37.9263 H   0  0  0  0  0  0  0  0  0  0  0  0
   50.0577   -4.6175   37.9350 H   0  0  0  0  0  0  0  0  0  0  0  0
   40.4449   -4.6255   41.7839 H   0  0  0  0  0  0  0  0  0  0  0  0
   39.3384   -4.2102   42.9428 H   0  0  0  0  0  0  0  0  0  0  0  0
   39.6670   -7.6549   41.3805 H   0  0  0  0  0  0  0  0  0  0  0  0
   38.0898   -7.7436   41.8839 H   0  0  0  0  0  0  0  0  0  0  0  0
   38.6532   -7.7689   44.0713 H   0  0  0  0  0  0  0  0  0  0  0  0
   39.8155   -8.7109   43.3848 H   0  0  0  0  0  0  0  0  0  0  0  0
   36.7944   -3.6783   42.7291 H   0  0  0  0  0  0  0  0  0  0  0  0
   37.0110   -2.3698   41.9786 H   0  0  0  0  0  0  0  0  0  0  0  0
   40.0012  -13.1592   48.2519 H   0  0  0  0  0  0  0  0  0  0  0  0
   41.5476  -13.6272   48.0001 H   0  0  0  0  0  0  0  0  0  0  0  0
   41.2299  -12.3881   49.0075 H   0  0  0  0  0  0  0  0  0  0  0  0
  1  2  1  0  0  0  0
  1 53  1  0  0  0  0
  1 54  1  0  0  0  0
  1 55  1  0  0  0  0
  2  3  1  0  0  0  0
  2  7  1  0  0  0  0
  2 51  1  1  0  0  0
  3  4  1  0  0  0  0
  3 56  1  0  0  0  0
  3 57  1  0  0  0  0
  4  5  1  0  0  0  0
  5  6  1  0  0  0  0
  5 58  1  0  0  0  0
  5 59  1  0  0  0  0
  6  7  1  0  0  0  0
  6 50  1  0  0  0  0
  6 52  1  1  0  0  0
  7  8  1  0  0  0  0
  7 60  1  1  0  0  0
  8  9  1  0  0  0  0
  8 61  1  0  0  0  0
  8 62  1  0  0  0  0
  9 10  1  0  0  0  0
  9 63  1  0  0  0  0
  9 64  1  0  0  0  0
 10 11  1  0  0  0  0
 10 65  1  0  0  0  0
 10 66  1  0  0  0  0
 11 12  1  0  0  0  0
 11 15  1  0  0  0  0
 12 13  2  0  0  0  0
 12 44  1  0  0  0  0
 13 14  1  0  0  0  0
 13 41  1  0  0  0  0
 14 15  2  0  0  0  0
 14 16  1  0  0  0  0
 16 17  2  0  0  0  0
 16 21  1  0  0  0  0
 17 18  1  0  0  0  0
 17 67  1  0  0  0  0
 18 19  2  0  0  0  0
 18 68  1  0  0  0  0
 19 20  1  0  0  0  0
 19 40  1  0  0  0  0
 20 21  2  0  0  0  0
 20 22  1  0  0  0  0
 21 69  1  0  0  0  0
 22 23  3  0  0  0  0
 23 24  1  0  0  0  0
 24 25  2  0  0  0  0
 24 29  1  0  0  0  0
 25 26  1  0  0  0  0
 25 70  1  0  0  0  0
 26 27  2  0  0  0  0
 26 71  1  0  0  0  0
 27 28  1  0  0  0  0
 27 30  1  0  0  0  0
 28 29  2  0  0  0  0
 28 72  1  0  0  0  0
 29 73  1  0  0  0  0
 30 31  1  0  0  0  0
 30 74  1  0  0  0  0
 30 75  1  0  0  0  0
 31 32  1  0  0  0  0
 31 76  1  0  0  0  0
 31 77  1  0  0  0  0
 32 33  1  0  0  0  0
 32 78  1  0  0  0  0
 32 79  1  0  0  0  0
 33 34  2  0  0  0  0
 33 38  1  0  0  0  0
 34 35  1  0  0  0  0
 34 80  1  0  0  0  0
 35 36  2  0  0  0  0
 35 81  1  0  0  0  0
 36 37  1  0  0  0  0
 36 39  1  0  0  0  0
 37 38  2  0  0  0  0
 37 82  1  0  0  0  0
 38 83  1  0  0  0  0
 41 42  1  0  0  0  0
 41 84  1  0  0  0  0
 41 85  1  0  0  0  0
 42 43  1  0  0  0  0
 42 45  1  0  0  0  0
 43 44  1  0  0  0  0
 43 86  1  0  0  0  0
 43 87  1  0  0  0  0
 44 88  1  0  0  0  0
 44 89  1  0  0  0  0
 45 46  2  0  0  0  0
 45 47  1  0  0  0  0
 47 48  2  0  0  0  0
 47 49  1  0  0  0  0
 49 90  1  0  0  0  0
 49 91  1  0  0  0  0
 50 92  1  0  0  0  0
 50 93  1  0  0  0  0
 50 94  1  0  0  0  0
M  CHG  2   7   1  31   1
M  END
