CatS_252:1_D
 OpenBabel12041818463D

 90 94  0  0  1  0  0  0  0  0999 V2000
   41.3510   -7.1398   49.3197 C   0  0  0  0  0  0  0  0  0  0  0  0
   42.0859   -8.2178   48.0562 S   0  0  0  0  0  0  0  0  0  0  0  0
   43.5070   -8.1308   48.1504 O   0  0  0  0  0  0  0  0  0  0  0  0
   41.5626   -9.5333   48.2393 O   0  0  0  0  0  0  0  0  0  0  0  0
   41.6679   -7.7078   46.5622 N   0  0  0  0  0  0  0  0  0  0  0  0
   40.2536   -7.8862   46.1609 C   0  0  0  0  0  0  0  0  0  0  0  0
   40.0400   -7.6661   44.6461 C   0  0  0  0  0  0  0  0  0  0  0  0
   40.6613   -6.3526   44.2179 C   0  0  0  0  0  0  0  0  0  0  0  0
   41.5876   -5.7370   44.9531 C   0  0  0  0  0  0  0  0  0  0  0  0
   41.8748   -4.5687   44.2075 C   0  0  0  0  0  0  0  0  0  0  0  0
   41.1347   -4.5756   43.1171 N   0  0  0  0  0  0  0  0  0  0  0  0
   40.3502   -5.6769   43.0862 N   0  0  0  0  0  0  0  0  0  0  0  0
   39.3259   -5.9653   42.0755 C   0  0  0  0  0  0  0  0  0  0  0  0
   38.0969   -5.0426   42.1157 C   0  0  2  0  0  0  0  0  0  0  0  0
   37.4307   -4.9283   40.7277 C   0  0  0  0  0  0  0  0  0  0  0  0
   36.2192   -5.8147   40.5598 N   0  3  0  0  0  0  0  0  0  0  0  0
   35.2189   -5.2569   39.5757 C   0  0  0  0  0  0  0  0  0  0  0  0
   35.7435   -5.3648   38.1293 C   0  0  0  0  0  0  0  0  0  0  0  0
   36.0741   -6.8329   37.8010 C   0  0  0  0  0  0  0  0  0  0  0  0
   37.1193   -7.3708   38.7972 C   0  0  0  0  0  0  0  0  0  0  0  0
   36.5912   -7.2427   40.2408 C   0  0  0  0  0  0  0  0  0  0  0  0
   38.4680   -3.7457   42.6054 O   0  0  0  0  0  0  0  0  0  0  0  0
   42.7970   -3.4890   44.5122 C   0  0  0  0  0  0  0  0  0  0  0  0
   44.1172   -3.5888   44.1145 C   0  0  0  0  0  0  0  0  0  0  0  0
   45.0074   -2.5765   44.3848 C   0  0  0  0  0  0  0  0  0  0  0  0
   44.6200   -1.4278   45.0458 C   0  0  0  0  0  0  0  0  0  0  0  0
   43.2886   -1.3279   45.4342 C   0  0  0  0  0  0  0  0  0  0  0  0
   42.3962   -2.3449   45.1773 C   0  0  0  0  0  0  0  0  0  0  0  0
   42.6455    0.1129   46.2993 S   0  0  0  0  0  0  0  0  0  0  0  0
   41.0466   -0.3516   47.0220 C   0  0  0  0  0  0  0  0  0  0  0  0
   40.6758    0.4913   48.2629 C   0  0  0  0  0  0  0  0  0  0  0  0
   40.8251   -0.1886   49.6017 N   0  3  1  0  0  0  0  0  0  0  0  0
   40.1073   -1.5175   49.6169 C   0  0  0  0  0  0  0  0  0  0  0  0
   40.2020   -2.1969   50.9970 C   0  0  0  0  0  0  0  0  0  0  0  0
   41.6830   -2.3727   51.3834 C   0  0  1  0  0  0  0  0  0  0  0  0
   42.3435   -0.9822   51.4470 C   0  0  0  0  0  0  0  0  0  0  0  0
   42.2588   -0.3030   50.0655 C   0  0  0  0  0  0  0  0  0  0  0  0
   41.7969   -3.0920   52.7119 C   0  0  0  0  0  0  0  0  0  0  0  0
   42.1582   -2.5462   53.7448 O   0  0  0  0  0  0  0  0  0  0  0  0
   41.4659   -4.3890   52.6267 N   0  0  0  0  0  0  0  0  0  0  0  0
   45.7306   -0.3926   45.2499 C   0  0  0  0  0  0  0  0  0  0  0  0
   46.9557   -0.7788   44.7186 F   0  0  0  0  0  0  0  0  0  0  0  0
   45.4324    0.8367   44.6671 F   0  0  0  0  0  0  0  0  0  0  0  0
   45.9257   -0.1503   46.6050 F   0  0  0  0  0  0  0  0  0  0  0  0
   42.0804   -6.3087   46.2790 C   0  0  0  0  0  0  0  0  0  0  0  0
   37.4276   -5.4461   42.7395 H   0  0  0  0  0  0  0  0  0  0  0  0
   40.8194   -6.4236   48.8675 H   0  0  0  0  0  0  0  0  0  0  0  0
   40.7541   -7.6765   49.9161 H   0  0  0  0  0  0  0  0  0  0  0  0
   42.0750   -6.7256   49.8712 H   0  0  0  0  0  0  0  0  0  0  0  0
   39.6899   -7.2324   46.6658 H   0  0  0  0  0  0  0  0  0  0  0  0
   39.9933   -8.8286   46.3709 H   0  0  0  0  0  0  0  0  0  0  0  0
   39.0601   -7.6516   44.4475 H   0  0  0  0  0  0  0  0  0  0  0  0
   40.4757   -8.4122   44.1426 H   0  0  0  0  0  0  0  0  0  0  0  0
   39.0148   -6.9066   42.2068 H   0  0  0  0  0  0  0  0  0  0  0  0
   39.7592   -5.8135   41.1871 H   0  0  0  0  0  0  0  0  0  0  0  0
   38.1045   -5.1754   40.0314 H   0  0  0  0  0  0  0  0  0  0  0  0
   37.1152   -3.9841   40.6326 H   0  0  0  0  0  0  0  0  0  0  0  0
   35.7994   -5.8373   41.3686 H   0  0  0  0  0  0  0  0  0  0  0  0
   35.0463   -4.2960   39.7924 H   0  0  0  0  0  0  0  0  0  0  0  0
   34.3742   -5.7876   39.6463 H   0  0  0  0  0  0  0  0  0  0  0  0
   36.5673   -4.8065   38.0311 H   0  0  0  0  0  0  0  0  0  0  0  0
   35.0401   -5.0375   37.4984 H   0  0  0  0  0  0  0  0  0  0  0  0
   36.4370   -6.8926   36.8711 H   0  0  0  0  0  0  0  0  0  0  0  0
   35.2410   -7.3815   37.8717 H   0  0  0  0  0  0  0  0  0  0  0  0
   37.9665   -6.8477   38.7045 H   0  0  0  0  0  0  0  0  0  0  0  0
   37.2944   -8.3351   38.5985 H   0  0  0  0  0  0  0  0  0  0  0  0
   35.7845   -7.8236   40.3487 H   0  0  0  0  0  0  0  0  0  0  0  0
   37.3148   -7.5296   40.8685 H   0  0  0  0  0  0  0  0  0  0  0  0
   38.7073   -3.7781   43.5820 H   0  0  0  0  0  0  0  0  0  0  0  0
   44.4276   -4.4043   43.6258 H   0  0  0  0  0  0  0  0  0  0  0  0
   45.9596   -2.6747   44.0954 H   0  0  0  0  0  0  0  0  0  0  0  0
   41.4461   -2.2548   45.4757 H   0  0  0  0  0  0  0  0  0  0  0  0
   41.0835   -1.3150   47.2878 H   0  0  0  0  0  0  0  0  0  0  0  0
   40.3458   -0.1842   46.3286 H   0  0  0  0  0  0  0  0  0  0  0  0
   39.7214    0.7740   48.1667 H   0  0  0  0  0  0  0  0  0  0  0  0
   41.3289    1.2484   48.2756 H   0  0  0  0  0  0  0  0  0  0  0  0
   40.3971    0.3388   50.2086 H   0  0  0  0  0  0  0  0  0  0  0  0
   40.5162   -2.1168   48.9286 H   0  0  0  0  0  0  0  0  0  0  0  0
   39.1416   -1.3539   49.4156 H   0  0  0  0  0  0  0  0  0  0  0  0
   39.7559   -3.0912   50.9612 H   0  0  0  0  0  0  0  0  0  0  0  0
   39.7462   -1.6269   51.6806 H   0  0  0  0  0  0  0  0  0  0  0  0
   42.1528   -2.9292   50.6981 H   0  0  0  0  0  0  0  0  0  0  0  0
   43.3023   -1.0797   51.7141 H   0  0  0  0  0  0  0  0  0  0  0  0
   41.8656   -0.4191   52.1212 H   0  0  0  0  0  0  0  0  0  0  0  0
   42.6588    0.6117   50.1234 H   0  0  0  0  0  0  0  0  0  0  0  0
   42.7615   -0.8629   49.4067 H   0  0  0  0  0  0  0  0  0  0  0  0
   41.2057   -4.7415   51.8631 H   0  0  0  0  0  0  0  0  0  0  0  0
   41.5052   -4.8945   53.3459 H   0  0  0  0  0  0  0  0  0  0  0  0
   43.0798   -6.2740   46.2803 H   0  0  0  0  0  0  0  0  0  0  0  0
   41.6603   -5.7479   46.9925 H   0  0  0  0  0  0  0  0  0  0  0  0
  1  2  1  0  0  0  0
  1 47  1  0  0  0  0
  1 48  1  0  0  0  0
  1 49  1  0  0  0  0
  2  3  2  0  0  0  0
  2  4  2  0  0  0  0
  2  5  1  0  0  0  0
  5  6  1  0  0  0  0
  5 45  1  0  0  0  0
  6  7  1  0  0  0  0
  6 50  1  0  0  0  0
  6 51  1  0  0  0  0
  7  8  1  0  0  0  0
  7 52  1  0  0  0  0
  7 53  1  0  0  0  0
  8  9  2  0  0  0  0
  8 12  1  0  0  0  0
  9 10  1  0  0  0  0
  9 45  1  0  0  0  0
 10 11  2  0  0  0  0
 10 23  1  0  0  0  0
 11 12  1  0  0  0  0
 12 13  1  0  0  0  0
 13 14  1  0  0  0  0
 13 54  1  0  0  0  0
 13 55  1  0  0  0  0
 14 15  1  0  0  0  0
 14 22  1  0  0  0  0
 14 46  1  1  0  0  0
 15 16  1  0  0  0  0
 15 56  1  0  0  0  0
 15 57  1  0  0  0  0
 16 17  1  0  0  0  0
 16 21  1  0  0  0  0
 16 58  1  0  0  0  0
 17 18  1  0  0  0  0
 17 59  1  0  0  0  0
 17 60  1  0  0  0  0
 18 19  1  0  0  0  0
 18 61  1  0  0  0  0
 18 62  1  0  0  0  0
 19 20  1  0  0  0  0
 19 63  1  0  0  0  0
 19 64  1  0  0  0  0
 20 21  1  0  0  0  0
 20 65  1  0  0  0  0
 20 66  1  0  0  0  0
 21 67  1  0  0  0  0
 21 68  1  0  0  0  0
 22 69  1  0  0  0  0
 23 24  2  0  0  0  0
 23 28  1  0  0  0  0
 24 25  1  0  0  0  0
 24 70  1  0  0  0  0
 25 26  2  0  0  0  0
 25 71  1  0  0  0  0
 26 27  1  0  0  0  0
 26 41  1  0  0  0  0
 27 28  2  0  0  0  0
 27 29  1  0  0  0  0
 28 72  1  0  0  0  0
 29 30  1  0  0  0  0
 30 31  1  0  0  0  0
 30 73  1  0  0  0  0
 30 74  1  0  0  0  0
 31 32  1  0  0  0  0
 31 75  1  0  0  0  0
 31 76  1  0  0  0  0
 32 33  1  0  0  0  0
 32 37  1  0  0  0  0
 32 77  1  1  0  0  0
 33 34  1  0  0  0  0
 33 78  1  0  0  0  0
 33 79  1  0  0  0  0
 34 35  1  0  0  0  0
 34 80  1  0  0  0  0
 34 81  1  0  0  0  0
 35 36  1  0  0  0  0
 35 38  1  0  0  0  0
 35 82  1  6  0  0  0
 36 37  1  0  0  0  0
 36 83  1  0  0  0  0
 36 84  1  0  0  0  0
 37 85  1  0  0  0  0
 37 86  1  0  0  0  0
 38 39  2  0  0  0  0
 38 40  1  0  0  0  0
 40 87  1  0  0  0  0
 40 88  1  0  0  0  0
 41 42  1  0  0  0  0
 41 43  1  0  0  0  0
 41 44  1  0  0  0  0
 45 89  1  0  0  0  0
 45 90  1  0  0  0  0
M  CHG  2  16   1  32   1
M  END
