CatS_75:1_D
 OpenBabel12041818463D

 92 96  0  0  1  0  0  0  0  0999 V2000
   37.1162  -14.6509   45.6235 C   0  0  0  0  0  0  0  0  0  0  0  0
   38.3357  -14.0094   44.9357 C   0  0  0  0  0  0  0  0  0  0  0  0
   39.3486  -13.6048   46.0347 C   0  0  0  0  0  0  0  0  0  0  0  0
   40.4750  -12.6811   45.5164 C   0  0  0  0  0  0  0  0  0  0  0  0
   39.8796  -11.4594   44.8603 N   0  3  0  0  0  0  0  0  0  0  0  0
   38.9997  -11.8389   43.6973 C   0  0  0  0  0  0  0  0  0  0  0  0
   37.8500  -12.7708   44.1413 C   0  0  0  0  0  0  0  0  0  0  0  0
   39.1718  -10.5222   45.8093 C   0  0  0  0  0  0  0  0  0  0  0  0
   40.1039   -9.5199   46.5272 C   0  0  2  0  0  0  0  0  0  0  0  0
   41.1674   -8.9200   45.5797 C   0  0  0  0  0  0  0  0  0  0  0  0
   41.0604   -7.5403   45.0753 N   0  0  0  0  0  0  0  0  0  0  0  0
   40.2754   -7.0056   44.1006 C   0  0  0  0  0  0  0  0  0  0  0  0
   40.6216   -5.7562   43.7791 C   0  0  0  0  0  0  0  0  0  0  0  0
   41.7330   -5.4963   44.6138 C   0  0  0  0  0  0  0  0  0  0  0  0
   41.9446   -6.5583   45.3630 N   0  0  0  0  0  0  0  0  0  0  0  0
   42.5748   -4.3120   44.6736 C   0  0  0  0  0  0  0  0  0  0  0  0
   43.9250   -4.4027   44.3914 C   0  0  0  0  0  0  0  0  0  0  0  0
   44.7216   -3.2828   44.4067 C   0  0  0  0  0  0  0  0  0  0  0  0
   44.2088   -2.0377   44.7086 C   0  0  0  0  0  0  0  0  0  0  0  0
   42.8606   -1.9520   45.0303 C   0  0  0  0  0  0  0  0  0  0  0  0
   42.0550   -3.0702   45.0000 C   0  0  0  0  0  0  0  0  0  0  0  0
   42.0976   -0.3919   45.5071 S   0  0  0  0  0  0  0  0  0  0  0  0
   41.3518   -0.6485   47.1453 C   0  0  0  0  0  0  0  0  0  0  0  0
   42.4333   -0.6600   48.2427 C   0  0  0  0  0  0  0  0  0  0  0  0
   42.0604   -1.4320   49.4880 N   0  3  1  0  0  0  0  0  0  0  0  0
   40.6100   -1.2145   49.8443 C   0  0  0  0  0  0  0  0  0  0  0  0
   40.2026   -1.8695   51.1865 C   0  0  0  0  0  0  0  0  0  0  0  0
   41.0276   -3.1359   51.5060 C   0  0  2  0  0  0  0  0  0  0  0  0
   41.4825   -3.8187   50.2049 C   0  0  0  0  0  0  0  0  0  0  0  0
   42.4560   -2.8971   49.4356 C   0  0  0  0  0  0  0  0  0  0  0  0
   40.2542   -4.0196   52.2540 F   0  0  0  0  0  0  0  0  0  0  0  0
   45.1797   -0.8575   44.6667 C   0  0  0  0  0  0  0  0  0  0  0  0
   46.5104   -1.2336   44.5110 F   0  0  0  0  0  0  0  0  0  0  0  0
   45.1037   -0.1231   45.8422 F   0  0  0  0  0  0  0  0  0  0  0  0
   44.8961    0.0074   43.6138 F   0  0  0  0  0  0  0  0  0  0  0  0
   39.9102   -4.9456   42.6993 C   0  0  0  0  0  0  0  0  0  0  0  0
   38.5857   -5.4840   42.3032 N   0  0  0  0  0  0  0  0  0  0  0  0
   38.7021   -6.9462   42.1116 C   0  0  0  0  0  0  0  0  0  0  0  0
   39.1285   -7.7071   43.3910 C   0  0  0  0  0  0  0  0  0  0  0  0
   37.8003   -4.7235   41.0866 S   0  0  0  0  0  0  0  0  0  0  0  0
   36.5135   -5.3298   40.9755 O   0  0  0  0  0  0  0  0  0  0  0  0
   37.8467   -3.3229   41.3577 O   0  0  0  0  0  0  0  0  0  0  0  0
   38.6950   -5.0051   39.5343 C   0  0  0  0  0  0  0  0  0  0  0  0
   40.7108  -10.1420   47.6702 O   0  0  0  0  0  0  0  0  0  0  0  0
   38.9256  -15.0819   43.9948 C   0  0  0  0  0  0  0  0  0  0  0  0
   39.5425   -8.7531   46.8385 H   0  0  0  0  0  0  0  0  0  0  0  0
   37.0124  -15.5891   45.2935 H   0  0  0  0  0  0  0  0  0  0  0  0
   37.2509  -14.6554   46.6144 H   0  0  0  0  0  0  0  0  0  0  0  0
   36.2934  -14.1246   45.4093 H   0  0  0  0  0  0  0  0  0  0  0  0
   39.7621  -14.4349   46.4087 H   0  0  0  0  0  0  0  0  0  0  0  0
   38.8434  -13.0932   46.7296 H   0  0  0  0  0  0  0  0  0  0  0  0
   41.0334  -13.1779   44.8521 H   0  0  0  0  0  0  0  0  0  0  0  0
   41.0443  -12.3939   46.2867 H   0  0  0  0  0  0  0  0  0  0  0  0
   40.5759  -10.9864   44.5109 H   0  0  0  0  0  0  0  0  0  0  0  0
   39.5529  -12.3063   43.0077 H   0  0  0  0  0  0  0  0  0  0  0  0
   38.5988  -11.0039   43.3203 H   0  0  0  0  0  0  0  0  0  0  0  0
   37.2204  -12.2496   44.7175 H   0  0  0  0  0  0  0  0  0  0  0  0
   37.4064  -13.1075   43.3108 H   0  0  0  0  0  0  0  0  0  0  0  0
   38.7043  -11.0706   46.5026 H   0  0  0  0  0  0  0  0  0  0  0  0
   38.5405   -9.9783   45.2564 H   0  0  0  0  0  0  0  0  0  0  0  0
   41.1982   -9.5146   44.7762 H   0  0  0  0  0  0  0  0  0  0  0  0
   41.9741   -8.8692   46.1684 H   0  0  0  0  0  0  0  0  0  0  0  0
   44.3262   -5.2925   44.1738 H   0  0  0  0  0  0  0  0  0  0  0  0
   45.6947   -3.3722   44.1942 H   0  0  0  0  0  0  0  0  0  0  0  0
   41.0826   -2.9837   45.2164 H   0  0  0  0  0  0  0  0  0  0  0  0
   40.8647   -1.5218   47.1522 H   0  0  0  0  0  0  0  0  0  0  0  0
   40.7175    0.1022   47.3298 H   0  0  0  0  0  0  0  0  0  0  0  0
   42.6233    0.2861   48.5049 H   0  0  0  0  0  0  0  0  0  0  0  0
   43.2279   -1.1242   47.8514 H   0  0  0  0  0  0  0  0  0  0  0  0
   42.5292   -1.0607   50.1762 H   0  0  0  0  0  0  0  0  0  0  0  0
   40.0423   -1.5982   49.1161 H   0  0  0  0  0  0  0  0  0  0  0  0
   40.4753   -0.2287   49.9451 H   0  0  0  0  0  0  0  0  0  0  0  0
   39.2349   -2.1176   51.1424 H   0  0  0  0  0  0  0  0  0  0  0  0
   40.3785   -1.2047   51.9126 H   0  0  0  0  0  0  0  0  0  0  0  0
   41.8366   -2.8722   52.0314 H   0  0  0  0  0  0  0  0  0  0  0  0
   40.6844   -4.0115   49.6341 H   0  0  0  0  0  0  0  0  0  0  0  0
   41.9505   -4.6734   50.4296 H   0  0  0  0  0  0  0  0  0  0  0  0
   43.3695   -2.9954   49.8304 H   0  0  0  0  0  0  0  0  0  0  0  0
   42.4321   -3.1770   48.4759 H   0  0  0  0  0  0  0  0  0  0  0  0
   40.4955   -4.9197   41.8888 H   0  0  0  0  0  0  0  0  0  0  0  0
   39.7446   -4.0382   43.0858 H   0  0  0  0  0  0  0  0  0  0  0  0
   39.3796   -7.1199   41.3969 H   0  0  0  0  0  0  0  0  0  0  0  0
   37.7941   -7.2821   41.8612 H   0  0  0  0  0  0  0  0  0  0  0  0
   38.3474   -7.7659   44.0126 H   0  0  0  0  0  0  0  0  0  0  0  0
   39.4369   -8.6199   43.1234 H   0  0  0  0  0  0  0  0  0  0  0  0
   39.0339   -4.1294   39.1904 H   0  0  0  0  0  0  0  0  0  0  0  0
   39.4638   -5.6241   39.6949 H   0  0  0  0  0  0  0  0  0  0  0  0
   38.0805   -5.4171   38.8615 H   0  0  0  0  0  0  0  0  0  0  0  0
   40.0212  -10.5823   48.2562 H   0  0  0  0  0  0  0  0  0  0  0  0
   39.8554  -15.2997   44.2917 H   0  0  0  0  0  0  0  0  0  0  0  0
   38.3604  -15.9062   44.0259 H   0  0  0  0  0  0  0  0  0  0  0  0
   38.9431  -14.7344   43.0573 H   0  0  0  0  0  0  0  0  0  0  0  0
  1  2  1  0  0  0  0
  1 47  1  0  0  0  0
  1 48  1  0  0  0  0
  1 49  1  0  0  0  0
  2  3  1  0  0  0  0
  2  7  1  0  0  0  0
  2 45  1  0  0  0  0
  3  4  1  0  0  0  0
  3 50  1  0  0  0  0
  3 51  1  0  0  0  0
  4  5  1  0  0  0  0
  4 52  1  0  0  0  0
  4 53  1  0  0  0  0
  5  6  1  0  0  0  0
  5  8  1  0  0  0  0
  5 54  1  0  0  0  0
  6  7  1  0  0  0  0
  6 55  1  0  0  0  0
  6 56  1  0  0  0  0
  7 57  1  0  0  0  0
  7 58  1  0  0  0  0
  8  9  1  0  0  0  0
  8 59  1  0  0  0  0
  8 60  1  0  0  0  0
  9 10  1  0  0  0  0
  9 44  1  0  0  0  0
  9 46  1  1  0  0  0
 10 11  1  0  0  0  0
 10 61  1  0  0  0  0
 10 62  1  0  0  0  0
 11 12  1  0  0  0  0
 11 15  1  0  0  0  0
 12 13  2  0  0  0  0
 12 39  1  0  0  0  0
 13 14  1  0  0  0  0
 13 36  1  0  0  0  0
 14 15  2  0  0  0  0
 14 16  1  0  0  0  0
 16 17  2  0  0  0  0
 16 21  1  0  0  0  0
 17 18  1  0  0  0  0
 17 63  1  0  0  0  0
 18 19  2  0  0  0  0
 18 64  1  0  0  0  0
 19 20  1  0  0  0  0
 19 32  1  0  0  0  0
 20 21  2  0  0  0  0
 20 22  1  0  0  0  0
 21 65  1  0  0  0  0
 22 23  1  0  0  0  0
 23 24  1  0  0  0  0
 23 66  1  0  0  0  0
 23 67  1  0  0  0  0
 24 25  1  0  0  0  0
 24 68  1  0  0  0  0
 24 69  1  0  0  0  0
 25 26  1  0  0  0  0
 25 30  1  0  0  0  0
 25 70  1  1  0  0  0
 26 27  1  0  0  0  0
 26 71  1  0  0  0  0
 26 72  1  0  0  0  0
 27 28  1  0  0  0  0
 27 73  1  0  0  0  0
 27 74  1  0  0  0  0
 28 29  1  0  0  0  0
 28 31  1  0  0  0  0
 28 75  1  1  0  0  0
 29 30  1  0  0  0  0
 29 76  1  0  0  0  0
 29 77  1  0  0  0  0
 30 78  1  0  0  0  0
 30 79  1  0  0  0  0
 32 33  1  0  0  0  0
 32 34  1  0  0  0  0
 32 35  1  0  0  0  0
 36 37  1  0  0  0  0
 36 80  1  0  0  0  0
 36 81  1  0  0  0  0
 37 38  1  0  0  0  0
 37 40  1  0  0  0  0
 38 39  1  0  0  0  0
 38 82  1  0  0  0  0
 38 83  1  0  0  0  0
 39 84  1  0  0  0  0
 39 85  1  0  0  0  0
 40 41  2  0  0  0  0
 40 42  2  0  0  0  0
 40 43  1  0  0  0  0
 43 86  1  0  0  0  0
 43 87  1  0  0  0  0
 43 88  1  0  0  0  0
 44 89  1  0  0  0  0
 45 90  1  0  0  0  0
 45 91  1  0  0  0  0
 45 92  1  0  0  0  0
M  CHG  2   5   1  25   1
M  END
