CatS_370:1_D
 OpenBabel12041818463D

 91 95  0  0  0  0  0  0  0  0999 V2000
   46.0680  -13.8910   34.2385 C   0  0  0  0  0  0  0  0  0  0  0  0
   44.6883  -13.5774   33.6293 C   0  0  0  0  0  0  0  0  0  0  0  0
   44.2963  -14.7476   32.7093 C   0  0  0  0  0  0  0  0  0  0  0  0
   43.6112  -13.4155   34.7235 C   0  0  0  0  0  0  0  0  0  0  0  0
   43.5460  -12.0091   35.2590 N   0  3  0  0  0  0  0  0  0  0  0  0
   42.3983  -11.7097   36.1948 C   0  0  0  0  0  0  0  0  0  0  0  0
   42.3123  -10.2613   36.6674 C   0  0  0  0  0  0  0  0  0  0  0  0
   43.0404   -9.2725   36.0427 C   0  0  0  0  0  0  0  0  0  0  0  0
   42.9592   -7.9712   36.4850 C   0  0  0  0  0  0  0  0  0  0  0  0
   42.1495   -7.6519   37.5515 C   0  0  0  0  0  0  0  0  0  0  0  0
   41.4165   -8.6316   38.1859 C   0  0  0  0  0  0  0  0  0  0  0  0
   41.5106   -9.9305   37.7384 C   0  0  0  0  0  0  0  0  0  0  0  0
   40.5096   -8.3678   39.3833 C   0  0  0  0  0  0  0  0  0  0  0  0
   39.2518   -7.4856   39.1971 C   0  0  0  0  0  0  0  0  0  0  0  0
   38.8615   -6.4722   40.2709 C   0  0  0  0  0  0  0  0  0  0  0  0
   39.7926   -6.2706   41.2665 C   0  0  0  0  0  0  0  0  0  0  0  0
   39.5483   -5.4091   42.3217 C   0  0  0  0  0  0  0  0  0  0  0  0
   38.3431   -4.7302   42.3583 C   0  0  0  0  0  0  0  0  0  0  0  0
   37.4155   -4.9064   41.3617 C   0  0  0  0  0  0  0  0  0  0  0  0
   37.6684   -5.7726   40.3201 C   0  0  0  0  0  0  0  0  0  0  0  0
   36.4569   -5.9578   39.0862 Cl  0  0  0  0  0  0  0  0  0  0  0  0
   40.5237   -5.2462   43.3861 C   0  0  0  0  0  0  0  0  0  0  0  0
   40.9387   -6.2448   44.2890 C   0  0  0  0  0  0  0  0  0  0  0  0
   41.8650   -5.6477   45.0370 C   0  0  0  0  0  0  0  0  0  0  0  0
   42.0348   -4.3368   44.7132 N   0  0  0  0  0  0  0  0  0  0  0  0
   41.1976   -4.1450   43.6552 N   0  0  0  0  0  0  0  0  0  0  0  0
   42.8790   -3.2881   45.3136 C   0  0  0  0  0  0  0  0  0  0  0  0
   42.7981   -1.8518   44.7399 C   0  0  0  0  0  0  0  0  0  0  0  0
   43.3457   -0.8300   45.7582 C   0  0  0  0  0  0  0  0  0  0  0  0
   42.4182    0.2539   46.2486 N   0  3  0  0  0  0  0  0  0  0  0  0
   43.0937    1.2667   47.1431 C   0  0  0  0  0  0  0  0  0  0  0  0
   42.0570    2.2797   47.6692 C   0  0  0  0  0  0  0  0  0  0  0  0
   40.9725    1.6030   48.3323 O   0  0  0  0  0  0  0  0  0  0  0  0
   40.2577    0.7219   47.4480 C   0  0  0  0  0  0  0  0  0  0  0  0
   41.2076   -0.3610   46.9089 C   0  0  0  0  0  0  0  0  0  0  0  0
   42.6117   -6.4606   46.0888 C   0  0  0  0  0  0  0  0  0  0  0  0
   41.8464   -7.7455   46.5249 C   0  0  0  0  0  0  0  0  0  0  0  0
   40.4840   -7.8907   45.9611 N   0  0  0  0  0  0  0  0  0  0  0  0
   40.5559   -7.6954   44.5009 C   0  0  0  0  0  0  0  0  0  0  0  0
   39.5983   -9.1278   46.5254 S   0  0  0  0  0  0  0  0  0  0  0  0
   38.2575   -8.9270   46.0793 O   0  0  0  0  0  0  0  0  0  0  0  0
   39.8261   -9.1740   47.9323 O   0  0  0  0  0  0  0  0  0  0  0  0
   40.1949  -10.6731   45.7854 C   0  0  0  0  0  0  0  0  0  0  0  0
   46.7611  -13.8372   33.5196 H   0  0  0  0  0  0  0  0  0  0  0  0
   46.2776  -13.2295   34.9586 H   0  0  0  0  0  0  0  0  0  0  0  0
   46.0609  -14.8099   34.6328 H   0  0  0  0  0  0  0  0  0  0  0  0
   44.7450  -12.7174   33.1222 H   0  0  0  0  0  0  0  0  0  0  0  0
   43.4328  -15.1378   33.0288 H   0  0  0  0  0  0  0  0  0  0  0  0
   44.1905  -14.4187   31.7709 H   0  0  0  0  0  0  0  0  0  0  0  0
   45.0112  -15.4465   32.7305 H   0  0  0  0  0  0  0  0  0  0  0  0
   43.8196  -14.0396   35.4765 H   0  0  0  0  0  0  0  0  0  0  0  0
   42.7242  -13.6260   34.3124 H   0  0  0  0  0  0  0  0  0  0  0  0
   44.3222  -11.8412   35.7036 H   0  0  0  0  0  0  0  0  0  0  0  0
   43.5479  -11.4141   34.5727 H   0  0  0  0  0  0  0  0  0  0  0  0
   42.4915  -12.2960   36.9995 H   0  0  0  0  0  0  0  0  0  0  0  0
   41.5618  -11.8827   35.6749 H   0  0  0  0  0  0  0  0  0  0  0  0
   43.6289   -9.5002   35.2668 H   0  0  0  0  0  0  0  0  0  0  0  0
   43.4899   -7.2560   36.0303 H   0  0  0  0  0  0  0  0  0  0  0  0
   42.0929   -6.7047   37.8673 H   0  0  0  0  0  0  0  0  0  0  0  0
   40.9873  -10.6472   38.1994 H   0  0  0  0  0  0  0  0  0  0  0  0
   41.0719   -7.9343   40.0876 H   0  0  0  0  0  0  0  0  0  0  0  0
   40.1361   -9.2693   39.6019 H   0  0  0  0  0  0  0  0  0  0  0  0
   38.4758   -8.1069   39.0879 H   0  0  0  0  0  0  0  0  0  0  0  0
   39.4909   -6.9086   38.4160 H   0  0  0  0  0  0  0  0  0  0  0  0
   40.6648   -6.7580   41.2256 H   0  0  0  0  0  0  0  0  0  0  0  0
   38.1466   -4.1073   43.1155 H   0  0  0  0  0  0  0  0  0  0  0  0
   36.5517   -4.4036   41.3918 H   0  0  0  0  0  0  0  0  0  0  0  0
   43.8290   -3.5886   45.2292 H   0  0  0  0  0  0  0  0  0  0  0  0
   42.5276   -3.1968   46.2454 H   0  0  0  0  0  0  0  0  0  0  0  0
   41.8451   -1.6328   44.5306 H   0  0  0  0  0  0  0  0  0  0  0  0
   43.3512   -1.8049   43.9081 H   0  0  0  0  0  0  0  0  0  0  0  0
   44.1331   -0.3812   45.3357 H   0  0  0  0  0  0  0  0  0  0  0  0
   43.5420   -1.3742   46.5739 H   0  0  0  0  0  0  0  0  0  0  0  0
   42.1180    0.7029   45.5149 H   0  0  0  0  0  0  0  0  0  0  0  0
   43.7993    1.7500   46.6248 H   0  0  0  0  0  0  0  0  0  0  0  0
   43.5110    0.7930   47.9186 H   0  0  0  0  0  0  0  0  0  0  0  0
   41.6959    2.8099   46.9021 H   0  0  0  0  0  0  0  0  0  0  0  0
   42.5054    2.8852   48.3266 H   0  0  0  0  0  0  0  0  0  0  0  0
   39.8831    1.2481   46.6846 H   0  0  0  0  0  0  0  0  0  0  0  0
   39.5123    0.2842   47.9508 H   0  0  0  0  0  0  0  0  0  0  0  0
   41.5069   -0.9421   47.6658 H   0  0  0  0  0  0  0  0  0  0  0  0
   40.7151   -0.9012   46.2265 H   0  0  0  0  0  0  0  0  0  0  0  0
   42.7572   -5.8852   46.8936 H   0  0  0  0  0  0  0  0  0  0  0  0
   43.4760   -6.7541   45.6803 H   0  0  0  0  0  0  0  0  0  0  0  0
   41.7721   -7.7394   47.5221 H   0  0  0  0  0  0  0  0  0  0  0  0
   42.3753   -8.5167   46.1705 H   0  0  0  0  0  0  0  0  0  0  0  0
   41.2449   -8.2997   44.1008 H   0  0  0  0  0  0  0  0  0  0  0  0
   39.6839   -7.9108   44.0614 H   0  0  0  0  0  0  0  0  0  0  0  0
   40.5674  -11.2570   46.5067 H   0  0  0  0  0  0  0  0  0  0  0  0
   39.4393  -11.1427   45.3285 H   0  0  0  0  0  0  0  0  0  0  0  0
   40.9069  -10.4713   45.1128 H   0  0  0  0  0  0  0  0  0  0  0  0
  1  2  1  0  0  0  0
  1 44  1  0  0  0  0
  1 45  1  0  0  0  0
  1 46  1  0  0  0  0
  2  3  1  0  0  0  0
  2  4  1  0  0  0  0
  2 47  1  0  0  0  0
  3 48  1  0  0  0  0
  3 49  1  0  0  0  0
  3 50  1  0  0  0  0
  4  5  1  0  0  0  0
  4 51  1  0  0  0  0
  4 52  1  0  0  0  0
  5  6  1  0  0  0  0
  5 53  1  0  0  0  0
  5 54  1  0  0  0  0
  6  7  1  0  0  0  0
  6 55  1  0  0  0  0
  6 56  1  0  0  0  0
  7  8  2  0  0  0  0
  7 12  1  0  0  0  0
  8  9  1  0  0  0  0
  8 57  1  0  0  0  0
  9 10  2  0  0  0  0
  9 58  1  0  0  0  0
 10 11  1  0  0  0  0
 10 59  1  0  0  0  0
 11 12  2  0  0  0  0
 11 13  1  0  0  0  0
 12 60  1  0  0  0  0
 13 14  1  0  0  0  0
 13 61  1  0  0  0  0
 13 62  1  0  0  0  0
 14 15  1  0  0  0  0
 14 63  1  0  0  0  0
 14 64  1  0  0  0  0
 15 16  2  0  0  0  0
 15 20  1  0  0  0  0
 16 17  1  0  0  0  0
 16 65  1  0  0  0  0
 17 18  2  0  0  0  0
 17 22  1  0  0  0  0
 18 19  1  0  0  0  0
 18 66  1  0  0  0  0
 19 20  2  0  0  0  0
 19 67  1  0  0  0  0
 20 21  1  0  0  0  0
 22 23  1  0  0  0  0
 22 26  2  0  0  0  0
 23 24  2  0  0  0  0
 23 39  1  0  0  0  0
 24 25  1  0  0  0  0
 24 36  1  0  0  0  0
 25 26  1  0  0  0  0
 25 27  1  0  0  0  0
 27 28  1  0  0  0  0
 27 68  1  0  0  0  0
 27 69  1  0  0  0  0
 28 29  1  0  0  0  0
 28 70  1  0  0  0  0
 28 71  1  0  0  0  0
 29 30  1  0  0  0  0
 29 72  1  0  0  0  0
 29 73  1  0  0  0  0
 30 31  1  0  0  0  0
 30 35  1  0  0  0  0
 30 74  1  0  0  0  0
 31 32  1  0  0  0  0
 31 75  1  0  0  0  0
 31 76  1  0  0  0  0
 32 33  1  0  0  0  0
 32 77  1  0  0  0  0
 32 78  1  0  0  0  0
 33 34  1  0  0  0  0
 34 35  1  0  0  0  0
 34 79  1  0  0  0  0
 34 80  1  0  0  0  0
 35 81  1  0  0  0  0
 35 82  1  0  0  0  0
 36 37  1  0  0  0  0
 36 83  1  0  0  0  0
 36 84  1  0  0  0  0
 37 38  1  0  0  0  0
 37 85  1  0  0  0  0
 37 86  1  0  0  0  0
 38 39  1  0  0  0  0
 38 40  1  0  0  0  0
 39 87  1  0  0  0  0
 39 88  1  0  0  0  0
 40 41  2  0  0  0  0
 40 42  2  0  0  0  0
 40 43  1  0  0  0  0
 43 89  1  0  0  0  0
 43 90  1  0  0  0  0
 43 91  1  0  0  0  0
M  CHG  2   5   1  30   1
M  END
