CatS_381:1_D
 OpenBabel12041818463D

 90 95  0  0  1  0  0  0  0  0999 V2000
   48.1959   -2.4376   41.0322 C   0  0  0  0  0  0  0  0  0  0  0  0
   47.5926   -1.2050   40.3260 C   0  0  1  0  0  0  0  0  0  0  0  0
   46.6250   -1.6807   39.2215 C   0  0  0  0  0  0  0  0  0  0  0  0
   45.4400   -2.2675   39.7938 O   0  0  0  0  0  0  0  0  0  0  0  0
   44.6852   -1.3249   40.5784 C   0  0  0  0  0  0  0  0  0  0  0  0
   45.5316   -0.7813   41.7458 C   0  0  0  0  0  0  0  0  0  0  0  0
   46.8544   -0.2501   41.2462 N   0  3  1  0  0  0  0  0  0  0  0  0
   47.6703    0.3322   42.3757 C   0  0  0  0  0  0  0  0  0  0  0  0
   47.4770   -0.3838   43.7295 C   0  0  0  0  0  0  0  0  0  0  0  0
   46.5988    0.4940   44.6401 C   0  0  0  0  0  0  0  0  0  0  0  0
   45.4873   -0.1643   45.3438 N   0  0  0  0  0  0  0  0  0  0  0  0
   44.6744    0.3074   46.3228 C   0  0  0  0  0  0  0  0  0  0  0  0
   43.7440   -0.5774   46.6919 C   0  0  0  0  0  0  0  0  0  0  0  0
   43.9962   -1.6962   45.8591 C   0  0  0  0  0  0  0  0  0  0  0  0
   45.0273   -1.4120   45.0874 N   0  0  0  0  0  0  0  0  0  0  0  0
   43.2832   -2.9666   45.7929 C   0  0  0  0  0  0  0  0  0  0  0  0
   43.4081   -3.8883   46.8267 C   0  0  0  0  0  0  0  0  0  0  0  0
   42.7374   -5.0890   46.8022 C   0  0  0  0  0  0  0  0  0  0  0  0
   41.9216   -5.3951   45.7449 C   0  0  0  0  0  0  0  0  0  0  0  0
   41.7785   -4.4945   44.6921 C   0  0  0  0  0  0  0  0  0  0  0  0
   42.4651   -3.2817   44.7231 C   0  0  0  0  0  0  0  0  0  0  0  0
   40.9035   -4.8901   43.6161 C   0  0  0  0  0  0  0  0  0  0  0  0
   40.0964   -5.1589   42.7392 C   0  0  0  0  0  0  0  0  0  0  0  0
   39.0835   -5.4027   41.7435 C   0  0  0  0  0  0  0  0  0  0  0  0
   38.0390   -4.4891   41.6476 C   0  0  0  0  0  0  0  0  0  0  0  0
   37.0425   -4.6788   40.7279 C   0  0  0  0  0  0  0  0  0  0  0  0
   37.0712   -5.7810   39.8996 C   0  0  0  0  0  0  0  0  0  0  0  0
   38.0989   -6.7016   39.9844 C   0  0  0  0  0  0  0  0  0  0  0  0
   39.1056   -6.5128   40.9026 C   0  0  0  0  0  0  0  0  0  0  0  0
   38.0432   -7.9168   39.0677 C   0  0  0  0  0  0  0  0  0  0  0  0
   39.1148   -7.9589   38.0094 N   0  3  0  0  0  0  0  0  0  0  0  0
   40.4382   -8.5354   38.4535 C   0  0  0  0  0  0  0  0  0  0  0  0
   41.5863   -8.4014   37.4614 C   0  0  0  0  0  0  0  0  0  0  0  0
   41.9752   -9.5121   36.7488 C   0  0  0  0  0  0  0  0  0  0  0  0
   43.0275   -9.4168   35.8776 C   0  0  0  0  0  0  0  0  0  0  0  0
   43.6632   -8.2113   35.7484 C   0  0  0  0  0  0  0  0  0  0  0  0
   43.2234   -7.1415   36.4897 C   0  0  0  0  0  0  0  0  0  0  0  0
   42.1891   -7.2002   37.3521 N   0  0  0  0  0  0  0  0  0  0  0  0
   35.7908   -6.0136   38.7459 Cl  0  0  0  0  0  0  0  0  0  0  0  0
   41.0708   -6.9136   45.7292 Cl  0  0  0  0  0  0  0  0  0  0  0  0
   42.7101   -0.2971   47.7791 C   0  0  0  0  0  0  0  0  0  0  0  0
   42.9137    0.9748   48.5101 N   0  0  0  0  0  0  0  0  0  0  0  0
   44.1862    1.7137   48.3740 C   0  0  0  0  0  0  0  0  0  0  0  0
   44.7700    1.6911   46.9457 C   0  0  0  0  0  0  0  0  0  0  0  0
   41.9709    1.4475   49.3514 C   0  0  0  0  0  0  0  0  0  0  0  0
   42.0585    2.5055   49.9604 O   0  0  0  0  0  0  0  0  0  0  0  0
   40.7119    0.7111   49.6426 C   0  0  0  0  0  0  0  0  0  0  0  0
   40.5362   -0.4561   49.3237 O   0  0  0  0  0  0  0  0  0  0  0  0
   39.8013    1.4418   50.3008 N   0  0  0  0  0  0  0  0  0  0  0  0
   48.3664   -0.6933   39.9528 H   0  0  0  0  0  0  0  0  0  0  0  0
   47.6898   -3.2534   40.7524 H   0  0  0  0  0  0  0  0  0  0  0  0
   49.1583   -2.5349   40.7786 H   0  0  0  0  0  0  0  0  0  0  0  0
   48.1306   -2.3232   42.0235 H   0  0  0  0  0  0  0  0  0  0  0  0
   47.0864   -2.3595   38.6502 H   0  0  0  0  0  0  0  0  0  0  0  0
   46.3550   -0.8905   38.6715 H   0  0  0  0  0  0  0  0  0  0  0  0
   43.8715   -1.7774   40.9432 H   0  0  0  0  0  0  0  0  0  0  0  0
   44.4216   -0.5590   39.9919 H   0  0  0  0  0  0  0  0  0  0  0  0
   45.6976   -1.5166   42.4028 H   0  0  0  0  0  0  0  0  0  0  0  0
   45.0318   -0.0339   42.1835 H   0  0  0  0  0  0  0  0  0  0  0  0
   46.6415    0.4638   40.7193 H   0  0  0  0  0  0  0  0  0  0  0  0
   47.4145    1.2926   42.4866 H   0  0  0  0  0  0  0  0  0  0  0  0
   48.6315    0.2165   42.1254 H   0  0  0  0  0  0  0  0  0  0  0  0
   48.3665   -0.5341   44.1610 H   0  0  0  0  0  0  0  0  0  0  0  0
   47.0324   -1.2676   43.5836 H   0  0  0  0  0  0  0  0  0  0  0  0
   46.2104    1.2214   44.0746 H   0  0  0  0  0  0  0  0  0  0  0  0
   47.2124    0.8043   45.3662 H   0  0  0  0  0  0  0  0  0  0  0  0
   43.9983   -3.6735   47.6049 H   0  0  0  0  0  0  0  0  0  0  0  0
   42.8452   -5.7379   47.5554 H   0  0  0  0  0  0  0  0  0  0  0  0
   42.3654   -2.6350   43.9668 H   0  0  0  0  0  0  0  0  0  0  0  0
   38.0158   -3.6923   42.2513 H   0  0  0  0  0  0  0  0  0  0  0  0
   36.2946   -4.0188   40.6570 H   0  0  0  0  0  0  0  0  0  0  0  0
   39.8539   -7.1731   40.9664 H   0  0  0  0  0  0  0  0  0  0  0  0
   37.1526   -7.9246   38.6129 H   0  0  0  0  0  0  0  0  0  0  0  0
   38.1928   -8.7158   39.6502 H   0  0  0  0  0  0  0  0  0  0  0  0
   39.2636   -7.1070   37.7233 H   0  0  0  0  0  0  0  0  0  0  0  0
   38.8096   -8.3899   37.2680 H   0  0  0  0  0  0  0  0  0  0  0  0
   40.3031   -9.5085   38.6404 H   0  0  0  0  0  0  0  0  0  0  0  0
   40.7105   -8.0033   39.2552 H   0  0  0  0  0  0  0  0  0  0  0  0
   41.4941  -10.3808   36.8660 H   0  0  0  0  0  0  0  0  0  0  0  0
   43.3250  -10.2106   35.3473 H   0  0  0  0  0  0  0  0  0  0  0  0
   44.4371   -8.1106   35.1231 H   0  0  0  0  0  0  0  0  0  0  0  0
   43.6984   -6.2680   36.3833 H   0  0  0  0  0  0  0  0  0  0  0  0
   42.7388   -1.0474   48.4396 H   0  0  0  0  0  0  0  0  0  0  0  0
   41.8270   -0.2185   47.3166 H   0  0  0  0  0  0  0  0  0  0  0  0
   44.8554    1.3090   48.9971 H   0  0  0  0  0  0  0  0  0  0  0  0
   43.9922    2.6701   48.5926 H   0  0  0  0  0  0  0  0  0  0  0  0
   44.2658    2.3404   46.3762 H   0  0  0  0  0  0  0  0  0  0  0  0
   45.7362    1.9429   47.0005 H   0  0  0  0  0  0  0  0  0  0  0  0
   39.9652    2.2806   50.5070 H   0  0  0  0  0  0  0  0  0  0  0  0
   39.0325    1.0790   50.5289 H   0  0  0  0  0  0  0  0  0  0  0  0
  1  2  1  0  0  0  0
  1 51  1  0  0  0  0
  1 52  1  0  0  0  0
  1 53  1  0  0  0  0
  2  3  1  0  0  0  0
  2  7  1  0  0  0  0
  2 50  1  6  0  0  0
  3  4  1  0  0  0  0
  3 54  1  0  0  0  0
  3 55  1  0  0  0  0
  4  5  1  0  0  0  0
  5  6  1  0  0  0  0
  5 56  1  0  0  0  0
  5 57  1  0  0  0  0
  6  7  1  0  0  0  0
  6 58  1  0  0  0  0
  6 59  1  0  0  0  0
  7  8  1  0  0  0  0
  7 60  1  6  0  0  0
  8  9  1  0  0  0  0
  8 61  1  0  0  0  0
  8 62  1  0  0  0  0
  9 10  1  0  0  0  0
  9 63  1  0  0  0  0
  9 64  1  0  0  0  0
 10 11  1  0  0  0  0
 10 65  1  0  0  0  0
 10 66  1  0  0  0  0
 11 12  1  0  0  0  0
 11 15  1  0  0  0  0
 12 13  2  0  0  0  0
 12 44  1  0  0  0  0
 13 14  1  0  0  0  0
 13 41  1  0  0  0  0
 14 15  2  0  0  0  0
 14 16  1  0  0  0  0
 16 17  2  0  0  0  0
 16 21  1  0  0  0  0
 17 18  1  0  0  0  0
 17 67  1  0  0  0  0
 18 19  2  0  0  0  0
 18 68  1  0  0  0  0
 19 20  1  0  0  0  0
 19 40  1  0  0  0  0
 20 21  2  0  0  0  0
 20 22  1  0  0  0  0
 21 69  1  0  0  0  0
 22 23  3  0  0  0  0
 23 24  1  0  0  0  0
 24 25  2  0  0  0  0
 24 29  1  0  0  0  0
 25 26  1  0  0  0  0
 25 70  1  0  0  0  0
 26 27  2  0  0  0  0
 26 71  1  0  0  0  0
 27 28  1  0  0  0  0
 27 39  1  0  0  0  0
 28 29  2  0  0  0  0
 28 30  1  0  0  0  0
 29 72  1  0  0  0  0
 30 31  1  0  0  0  0
 30 73  1  0  0  0  0
 30 74  1  0  0  0  0
 31 32  1  0  0  0  0
 31 75  1  0  0  0  0
 31 76  1  0  0  0  0
 32 33  1  0  0  0  0
 32 77  1  0  0  0  0
 32 78  1  0  0  0  0
 33 34  2  0  0  0  0
 33 38  1  0  0  0  0
 34 35  1  0  0  0  0
 34 79  1  0  0  0  0
 35 36  2  0  0  0  0
 35 80  1  0  0  0  0
 36 37  1  0  0  0  0
 36 81  1  0  0  0  0
 37 38  2  0  0  0  0
 37 82  1  0  0  0  0
 41 42  1  0  0  0  0
 41 83  1  0  0  0  0
 41 84  1  0  0  0  0
 42 43  1  0  0  0  0
 42 45  1  0  0  0  0
 43 44  1  0  0  0  0
 43 85  1  0  0  0  0
 43 86  1  0  0  0  0
 44 87  1  0  0  0  0
 44 88  1  0  0  0  0
 45 46  2  0  0  0  0
 45 47  1  0  0  0  0
 47 48  2  0  0  0  0
 47 49  1  0  0  0  0
 49 89  1  0  0  0  0
 49 90  1  0  0  0  0
M  CHG  2   7   1  31   1
M  END
