CatS_116:1_D
 OpenBabel12041818463D

 96101  0  0  1  0  0  0  0  0999 V2000
   44.1306   -2.4703   43.2194 C   0  0  0  0  0  0  0  0  0  0  0  0
   43.2136   -2.1857   44.7615 S   0  0  0  0  0  0  0  0  0  0  0  0
   42.1317   -1.2974   44.4877 O   0  0  0  0  0  0  0  0  0  0  0  0
   44.1338   -1.6970   45.7364 O   0  0  0  0  0  0  0  0  0  0  0  0
   42.5741   -3.5958   45.3108 N   0  0  0  0  0  0  0  0  0  0  0  0
   43.4993   -4.6558   45.7823 C   0  0  0  0  0  0  0  0  0  0  0  0
   42.7729   -5.8376   46.4749 C   0  0  0  0  0  0  0  0  0  0  0  0
   41.6911   -6.3867   45.5642 C   0  0  0  0  0  0  0  0  0  0  0  0
   41.1632   -5.6206   44.6090 C   0  0  0  0  0  0  0  0  0  0  0  0
   40.2361   -6.4786   43.9756 C   0  0  0  0  0  0  0  0  0  0  0  0
   40.2601   -7.6445   44.5856 N   0  0  0  0  0  0  0  0  0  0  0  0
   41.1712   -7.6443   45.5860 N   0  0  0  0  0  0  0  0  0  0  0  0
   41.5770   -8.8550   46.3131 C   0  0  0  0  0  0  0  0  0  0  0  0
   40.5080   -9.7182   47.0149 C   0  0  1  0  0  0  0  0  0  0  0  0
   40.7510  -11.2359   46.8459 C   0  0  0  0  0  0  0  0  0  0  0  0
   40.3362  -11.7986   45.5056 N   0  3  2  0  0  0  0  0  0  0  0  0
   38.9312  -11.4211   45.0978 C   0  0  0  0  0  0  0  0  0  0  0  0
   38.4813  -12.0595   43.7633 C   0  0  0  0  0  0  0  0  0  0  0  0
   38.7935  -13.5700   43.6183 C   0  0  1  0  0  0  0  0  0  0  0  0
   40.2577  -13.8384   44.0341 C   0  0  0  0  0  0  0  0  0  0  0  0
   40.5738  -13.2870   45.4395 C   0  0  0  0  0  0  0  0  0  0  0  0
   37.7893  -14.5699   44.1911 C   0  0  0  0  0  0  0  0  0  0  0  0
   38.1846  -15.8215   44.6097 C   0  0  0  0  0  0  0  0  0  0  0  0
   37.2573  -16.6949   45.1104 C   0  0  0  0  0  0  0  0  0  0  0  0
   35.9507  -16.2949   45.1748 C   0  0  0  0  0  0  0  0  0  0  0  0
   35.6186  -15.0365   44.7377 C   0  0  0  0  0  0  0  0  0  0  0  0
   36.5078  -14.1525   44.2436 N   0  0  0  0  0  0  0  0  0  0  0  0
   38.6994  -13.8563   42.2152 O   0  0  0  0  0  0  0  0  0  0  0  0
   40.4482   -9.3860   48.4098 O   0  0  0  0  0  0  0  0  0  0  0  0
   39.4034   -6.2090   42.8180 C   0  0  0  0  0  0  0  0  0  0  0  0
   38.4908   -5.1711   42.8662 C   0  0  0  0  0  0  0  0  0  0  0  0
   37.6876   -4.8960   41.7866 C   0  0  0  0  0  0  0  0  0  0  0  0
   37.7551   -5.6463   40.6306 C   0  0  0  0  0  0  0  0  0  0  0  0
   38.6871   -6.6753   40.5797 C   0  0  0  0  0  0  0  0  0  0  0  0
   39.5040   -6.9495   41.6551 C   0  0  0  0  0  0  0  0  0  0  0  0
   38.8748   -7.7055   39.1176 S   0  0  0  0  0  0  0  0  0  0  0  0
   40.5927   -8.2833   39.1367 C   0  0  0  0  0  0  0  0  0  0  0  0
   40.8318   -9.2865   37.9864 C   0  0  0  0  0  0  0  0  0  0  0  0
   42.1209   -9.0736   37.2336 N   0  3  1  0  0  0  0  0  0  0  0  0
   42.1735   -9.7785   35.9017 C   0  0  0  0  0  0  0  0  0  0  0  0
   43.6019   -9.7514   35.3014 C   0  0  0  0  0  0  0  0  0  0  0  0
   44.4440   -8.5715   35.8407 C   0  0  2  0  0  0  0  0  0  0  0  0
   43.5633   -7.3277   36.0627 C   0  0  0  0  0  0  0  0  0  0  0  0
   42.4711   -7.6071   37.1234 C   0  0  0  0  0  0  0  0  0  0  0  0
   45.4551   -8.2668   34.9356 F   0  0  0  0  0  0  0  0  0  0  0  0
   36.7807   -5.2759   39.5113 C   0  0  0  0  0  0  0  0  0  0  0  0
   37.4123   -4.5578   38.5020 F   0  0  0  0  0  0  0  0  0  0  0  0
   35.7024   -4.5042   39.9400 F   0  0  0  0  0  0  0  0  0  0  0  0
   36.2416   -6.4198   38.9315 F   0  0  0  0  0  0  0  0  0  0  0  0
   41.6023   -4.1819   44.3540 C   0  0  0  0  0  0  0  0  0  0  0  0
   39.6344   -9.5123   46.5740 H   0  0  0  0  0  0  0  0  0  0  0  0
   44.0786   -3.4410   42.9842 H   0  0  0  0  0  0  0  0  0  0  0  0
   43.7317   -1.9236   42.4833 H   0  0  0  0  0  0  0  0  0  0  0  0
   45.0865   -2.2034   43.3420 H   0  0  0  0  0  0  0  0  0  0  0  0
   44.1437   -4.2514   46.4314 H   0  0  0  0  0  0  0  0  0  0  0  0
   43.9628   -5.0249   44.9767 H   0  0  0  0  0  0  0  0  0  0  0  0
   42.3609   -5.5203   47.3289 H   0  0  0  0  0  0  0  0  0  0  0  0
   43.4352   -6.5612   46.6693 H   0  0  0  0  0  0  0  0  0  0  0  0
   42.2287   -8.5684   47.0153 H   0  0  0  0  0  0  0  0  0  0  0  0
   41.9226   -9.4551   45.5917 H   0  0  0  0  0  0  0  0  0  0  0  0
   40.2398  -11.7155   47.5591 H   0  0  0  0  0  0  0  0  0  0  0  0
   41.7394  -11.3719   46.9131 H   0  0  0  0  0  0  0  0  0  0  0  0
   40.8935  -11.4282   44.8861 H   0  0  0  0  0  0  0  0  0  0  0  0
   38.8832  -10.4264   45.0073 H   0  0  0  0  0  0  0  0  0  0  0  0
   38.3173  -11.7660   45.8079 H   0  0  0  0  0  0  0  0  0  0  0  0
   38.9366  -11.5737   43.0171 H   0  0  0  0  0  0  0  0  0  0  0  0
   37.4849  -11.9792   43.7387 H   0  0  0  0  0  0  0  0  0  0  0  0
   40.8672  -13.4047   43.3705 H   0  0  0  0  0  0  0  0  0  0  0  0
   40.3940  -14.8288   44.0562 H   0  0  0  0  0  0  0  0  0  0  0  0
   39.9893  -13.7426   46.1109 H   0  0  0  0  0  0  0  0  0  0  0  0
   41.5378  -13.4635   45.6389 H   0  0  0  0  0  0  0  0  0  0  0  0
   39.1456  -16.0909   44.5480 H   0  0  0  0  0  0  0  0  0  0  0  0
   37.5290  -17.6053   45.4223 H   0  0  0  0  0  0  0  0  0  0  0  0
   35.2485  -16.9094   45.5345 H   0  0  0  0  0  0  0  0  0  0  0  0
   34.6593  -14.7591   44.7891 H   0  0  0  0  0  0  0  0  0  0  0  0
   39.4412  -14.4659   41.9152 H   0  0  0  0  0  0  0  0  0  0  0  0
   39.8257  -10.0012   48.9057 H   0  0  0  0  0  0  0  0  0  0  0  0
   38.4149   -4.6160   43.6945 H   0  0  0  0  0  0  0  0  0  0  0  0
   37.0401   -4.1358   41.8395 H   0  0  0  0  0  0  0  0  0  0  0  0
   40.1741   -7.6894   41.5938 H   0  0  0  0  0  0  0  0  0  0  0  0
   40.7831   -8.7287   40.0116 H   0  0  0  0  0  0  0  0  0  0  0  0
   41.2016   -7.4993   39.0158 H   0  0  0  0  0  0  0  0  0  0  0  0
   40.0727   -9.2101   37.3400 H   0  0  0  0  0  0  0  0  0  0  0  0
   40.8935  -10.1922   38.4057 H   0  0  0  0  0  0  0  0  0  0  0  0
   42.7755   -9.4511   37.7416 H   0  0  0  0  0  0  0  0  0  0  0  0
   41.5436   -9.3282   35.2689 H   0  0  0  0  0  0  0  0  0  0  0  0
   41.9110  -10.7334   36.0414 H   0  0  0  0  0  0  0  0  0  0  0  0
   43.5328   -9.6721   34.3069 H   0  0  0  0  0  0  0  0  0  0  0  0
   44.0610  -10.5992   35.5670 H   0  0  0  0  0  0  0  0  0  0  0  0
   44.8429   -8.8417   36.7170 H   0  0  0  0  0  0  0  0  0  0  0  0
   43.1275   -7.0747   35.1988 H   0  0  0  0  0  0  0  0  0  0  0  0
   44.1419   -6.5807   36.3903 H   0  0  0  0  0  0  0  0  0  0  0  0
   42.7973   -7.2876   38.0130 H   0  0  0  0  0  0  0  0  0  0  0  0
   41.6449   -7.1218   36.8371 H   0  0  0  0  0  0  0  0  0  0  0  0
   42.0141   -4.1463   43.4435 H   0  0  0  0  0  0  0  0  0  0  0  0
   40.7716   -3.6352   44.4595 H   0  0  0  0  0  0  0  0  0  0  0  0
  1  2  1  0  0  0  0
  1 52  1  0  0  0  0
  1 53  1  0  0  0  0
  1 54  1  0  0  0  0
  2  3  2  0  0  0  0
  2  4  2  0  0  0  0
  2  5  1  0  0  0  0
  5  6  1  0  0  0  0
  5 50  1  0  0  0  0
  6  7  1  0  0  0  0
  6 55  1  0  0  0  0
  6 56  1  0  0  0  0
  7  8  1  0  0  0  0
  7 57  1  0  0  0  0
  7 58  1  0  0  0  0
  8  9  2  0  0  0  0
  8 12  1  0  0  0  0
  9 10  1  0  0  0  0
  9 50  1  0  0  0  0
 10 11  2  0  0  0  0
 10 30  1  0  0  0  0
 11 12  1  0  0  0  0
 12 13  1  0  0  0  0
 13 14  1  0  0  0  0
 13 59  1  0  0  0  0
 13 60  1  0  0  0  0
 14 15  1  0  0  0  0
 14 29  1  0  0  0  0
 14 51  1  6  0  0  0
 15 16  1  0  0  0  0
 15 61  1  0  0  0  0
 15 62  1  0  0  0  0
 16 17  1  0  0  0  0
 16 21  1  0  0  0  0
 16 63  1  6  0  0  0
 17 18  1  0  0  0  0
 17 64  1  0  0  0  0
 17 65  1  0  0  0  0
 18 19  1  0  0  0  0
 18 66  1  0  0  0  0
 18 67  1  0  0  0  0
 19 20  1  0  0  0  0
 19 22  1  1  0  0  0
 19 28  1  0  0  0  0
 20 21  1  0  0  0  0
 20 68  1  0  0  0  0
 20 69  1  0  0  0  0
 21 70  1  0  0  0  0
 21 71  1  0  0  0  0
 22 23  2  0  0  0  0
 22 27  1  0  0  0  0
 23 24  1  0  0  0  0
 23 72  1  0  0  0  0
 24 25  2  0  0  0  0
 24 73  1  0  0  0  0
 25 26  1  0  0  0  0
 25 74  1  0  0  0  0
 26 27  2  0  0  0  0
 26 75  1  0  0  0  0
 28 76  1  0  0  0  0
 29 77  1  0  0  0  0
 30 31  2  0  0  0  0
 30 35  1  0  0  0  0
 31 32  1  0  0  0  0
 31 78  1  0  0  0  0
 32 33  2  0  0  0  0
 32 79  1  0  0  0  0
 33 34  1  0  0  0  0
 33 46  1  0  0  0  0
 34 35  2  0  0  0  0
 34 36  1  0  0  0  0
 35 80  1  0  0  0  0
 36 37  1  0  0  0  0
 37 38  1  0  0  0  0
 37 81  1  0  0  0  0
 37 82  1  0  0  0  0
 38 39  1  0  0  0  0
 38 83  1  0  0  0  0
 38 84  1  0  0  0  0
 39 40  1  0  0  0  0
 39 44  1  0  0  0  0
 39 85  1  1  0  0  0
 40 41  1  0  0  0  0
 40 86  1  0  0  0  0
 40 87  1  0  0  0  0
 41 42  1  0  0  0  0
 41 88  1  0  0  0  0
 41 89  1  0  0  0  0
 42 43  1  0  0  0  0
 42 45  1  0  0  0  0
 42 90  1  1  0  0  0
 43 44  1  0  0  0  0
 43 91  1  0  0  0  0
 43 92  1  0  0  0  0
 44 93  1  0  0  0  0
 44 94  1  0  0  0  0
 46 47  1  0  0  0  0
 46 48  1  0  0  0  0
 46 49  1  0  0  0  0
 50 95  1  0  0  0  0
 50 96  1  0  0  0  0
M  CHG  2  16   1  39   1
M  END
