CatS_179:1_D
 OpenBabel12041818463D

 98102  0  0  1  0  0  0  0  0999 V2000
   50.1340   -3.8382   40.2149 C   0  0  0  0  0  0  0  0  0  0  0  0
   48.9930   -2.9103   39.7507 C   0  0  0  0  0  0  0  0  0  0  0  0
   48.5355   -3.4070   38.3656 C   0  0  0  0  0  0  0  0  0  0  0  0
   49.6210   -1.5126   39.5620 C   0  0  0  0  0  0  0  0  0  0  0  0
   47.8307   -2.8455   40.7944 C   0  0  1  0  0  0  0  0  0  0  0  0
   48.2969   -2.3858   42.1965 C   0  0  0  0  0  0  0  0  0  0  0  0
   47.1592   -2.5818   43.2152 C   0  0  0  0  0  0  0  0  0  0  0  0
   45.9317   -1.7952   42.8247 N   0  3  1  0  0  0  0  0  0  0  0  0
   45.4810   -2.0952   41.4160 C   0  0  0  0  0  0  0  0  0  0  0  0
   46.6320   -1.9464   40.3952 C   0  0  0  0  0  0  0  0  0  0  0  0
   44.8276   -1.9578   43.8428 C   0  0  0  0  0  0  0  0  0  0  0  0
   43.7218   -2.9729   43.4764 C   0  0  1  0  0  0  0  0  0  0  0  0
   42.9360   -3.4942   44.6984 C   0  0  0  0  0  0  0  0  0  0  0  0
   41.9487   -4.5219   44.3231 N   0  0  0  0  0  0  0  0  0  0  0  0
   41.5988   -5.6816   44.9384 C   0  0  0  0  0  0  0  0  0  0  0  0
   40.5921   -6.3128   44.3286 C   0  0  0  0  0  0  0  0  0  0  0  0
   40.2886   -5.4709   43.2345 C   0  0  0  0  0  0  0  0  0  0  0  0
   41.1113   -4.4433   43.2618 N   0  0  0  0  0  0  0  0  0  0  0  0
   39.2608   -5.6147   42.2179 C   0  0  0  0  0  0  0  0  0  0  0  0
   38.1011   -4.8630   42.2614 C   0  0  0  0  0  0  0  0  0  0  0  0
   37.1739   -4.9586   41.2500 C   0  0  0  0  0  0  0  0  0  0  0  0
   37.3582   -5.8001   40.1702 C   0  0  0  0  0  0  0  0  0  0  0  0
   38.5087   -6.5805   40.1486 C   0  0  0  0  0  0  0  0  0  0  0  0
   39.4422   -6.4813   41.1565 C   0  0  0  0  0  0  0  0  0  0  0  0
   38.9023   -7.7236   38.8123 S   0  0  0  0  0  0  0  0  0  0  0  0
   40.4508   -8.6416   39.0485 C   0  0  0  0  0  0  0  0  0  0  0  0
   40.7442   -9.3960   37.7366 C   0  0  0  0  0  0  0  0  0  0  0  0
   42.1349   -9.1854   37.1897 N   0  3  0  0  0  0  0  0  0  0  0  0
   42.4806  -10.1118   36.0384 C   0  0  0  0  0  0  0  0  0  0  0  0
   43.3655   -9.4569   34.9563 C   0  0  0  0  0  0  0  0  0  0  0  0
   44.4536   -8.5847   35.6068 C   0  0  0  0  0  0  0  0  0  0  0  0
   43.8403   -7.4448   36.4547 C   0  0  0  0  0  0  0  0  0  0  0  0
   42.3801   -7.7297   36.8767 C   0  0  0  0  0  0  0  0  0  0  0  0
   45.2721   -8.0507   34.6164 F   0  0  0  0  0  0  0  0  0  0  0  0
   45.2618   -9.3864   36.4059 F   0  0  0  0  0  0  0  0  0  0  0  0
   36.2566   -5.7561   39.1108 C   0  0  0  0  0  0  0  0  0  0  0  0
   36.7241   -5.2653   37.8960 F   0  0  0  0  0  0  0  0  0  0  0  0
   35.1875   -4.9366   39.4645 F   0  0  0  0  0  0  0  0  0  0  0  0
   35.7303   -7.0238   38.8909 F   0  0  0  0  0  0  0  0  0  0  0  0
   40.0211   -7.6391   44.8210 C   0  0  0  0  0  0  0  0  0  0  0  0
   40.3217   -7.9179   46.2462 N   0  0  0  0  0  0  0  0  0  0  0  0
   41.7645   -7.6856   46.4870 C   0  0  0  0  0  0  0  0  0  0  0  0
   42.2285   -6.2351   46.2031 C   0  0  0  0  0  0  0  0  0  0  0  0
   39.7464   -9.2999   46.9093 S   0  0  0  0  0  0  0  0  0  0  0  0
   40.2068   -9.3803   48.2563 O   0  0  0  0  0  0  0  0  0  0  0  0
   38.3273   -9.2838   46.7745 O   0  0  0  0  0  0  0  0  0  0  0  0
   40.3871  -10.7340   45.9974 C   0  0  0  0  0  0  0  0  0  0  0  0
   42.8191   -2.3251   42.5687 O   0  0  0  0  0  0  0  0  0  0  0  0
   44.1602   -3.7723   43.0656 H   0  0  0  0  0  0  0  0  0  0  0  0
   49.8991   -4.2212   41.1082 H   0  0  0  0  0  0  0  0  0  0  0  0
   50.2582   -4.5778   39.5534 H   0  0  0  0  0  0  0  0  0  0  0  0
   50.9846   -3.3170   40.2840 H   0  0  0  0  0  0  0  0  0  0  0  0
   47.5546   -3.5995   38.3964 H   0  0  0  0  0  0  0  0  0  0  0  0
   48.7195   -2.7052   37.6773 H   0  0  0  0  0  0  0  0  0  0  0  0
   49.0354   -4.2387   38.1242 H   0  0  0  0  0  0  0  0  0  0  0  0
   49.1462   -0.8599   40.1524 H   0  0  0  0  0  0  0  0  0  0  0  0
   50.5907   -1.5425   39.8044 H   0  0  0  0  0  0  0  0  0  0  0  0
   49.5328   -1.2301   38.6068 H   0  0  0  0  0  0  0  0  0  0  0  0
   47.5216   -3.7963   40.8160 H   0  0  0  0  0  0  0  0  0  0  0  0
   48.5527   -1.4197   42.1627 H   0  0  0  0  0  0  0  0  0  0  0  0
   49.0867   -2.9314   42.4768 H   0  0  0  0  0  0  0  0  0  0  0  0
   47.4706   -2.2786   44.1157 H   0  0  0  0  0  0  0  0  0  0  0  0
   46.9174   -3.5519   43.2352 H   0  0  0  0  0  0  0  0  0  0  0  0
   46.1889   -0.9214   42.8318 H   0  0  0  0  0  0  0  0  0  0  0  0
   44.7446   -1.4649   41.1700 H   0  0  0  0  0  0  0  0  0  0  0  0
   45.1663   -3.0440   41.3882 H   0  0  0  0  0  0  0  0  0  0  0  0
   46.3070   -2.2125   39.4876 H   0  0  0  0  0  0  0  0  0  0  0  0
   46.9324   -0.9927   40.3846 H   0  0  0  0  0  0  0  0  0  0  0  0
   44.3967   -1.0652   43.9757 H   0  0  0  0  0  0  0  0  0  0  0  0
   45.2667   -2.3203   44.6647 H   0  0  0  0  0  0  0  0  0  0  0  0
   42.4599   -2.7274   45.1288 H   0  0  0  0  0  0  0  0  0  0  0  0
   43.5893   -3.9117   45.3300 H   0  0  0  0  0  0  0  0  0  0  0  0
   37.9357   -4.2471   43.0315 H   0  0  0  0  0  0  0  0  0  0  0  0
   36.3434   -4.4037   41.2978 H   0  0  0  0  0  0  0  0  0  0  0  0
   40.2664   -7.0465   41.1197 H   0  0  0  0  0  0  0  0  0  0  0  0
   40.3541   -9.2895   39.8041 H   0  0  0  0  0  0  0  0  0  0  0  0
   41.2003   -8.0182   39.2711 H   0  0  0  0  0  0  0  0  0  0  0  0
   40.0860   -9.0937   37.0472 H   0  0  0  0  0  0  0  0  0  0  0  0
   40.6679  -10.3707   37.9467 H   0  0  0  0  0  0  0  0  0  0  0  0
   42.7057   -9.3864   37.8713 H   0  0  0  0  0  0  0  0  0  0  0  0
   41.6295  -10.4170   35.6111 H   0  0  0  0  0  0  0  0  0  0  0  0
   43.0064  -10.8705   36.4230 H   0  0  0  0  0  0  0  0  0  0  0  0
   42.7958   -8.8887   34.3625 H   0  0  0  0  0  0  0  0  0  0  0  0
   43.8067  -10.1764   34.4198 H   0  0  0  0  0  0  0  0  0  0  0  0
   43.8618   -6.6000   35.9200 H   0  0  0  0  0  0  0  0  0  0  0  0
   44.3836   -7.3663   37.2905 H   0  0  0  0  0  0  0  0  0  0  0  0
   42.1679   -7.1866   37.6891 H   0  0  0  0  0  0  0  0  0  0  0  0
   41.7922   -7.4848   36.1057 H   0  0  0  0  0  0  0  0  0  0  0  0
   40.4032   -8.3765   44.2639 H   0  0  0  0  0  0  0  0  0  0  0  0
   39.0264   -7.5811   44.7368 H   0  0  0  0  0  0  0  0  0  0  0  0
   42.2858   -8.3050   45.9000 H   0  0  0  0  0  0  0  0  0  0  0  0
   41.9244   -7.8524   47.4599 H   0  0  0  0  0  0  0  0  0  0  0  0
   41.9730   -5.6535   46.9754 H   0  0  0  0  0  0  0  0  0  0  0  0
   43.2207   -6.2455   46.0783 H   0  0  0  0  0  0  0  0  0  0  0  0
   39.6209  -11.2255   45.5835 H   0  0  0  0  0  0  0  0  0  0  0  0
   41.0154  -10.4267   45.2827 H   0  0  0  0  0  0  0  0  0  0  0  0
   40.8779  -11.3395   46.6239 H   0  0  0  0  0  0  0  0  0  0  0  0
   43.1514   -1.4132   42.3070 H   0  0  0  0  0  0  0  0  0  0  0  0
  1  2  1  0  0  0  0
  1 50  1  0  0  0  0
  1 51  1  0  0  0  0
  1 52  1  0  0  0  0
  2  3  1  0  0  0  0
  2  4  1  0  0  0  0
  2  5  1  0  0  0  0
  3 53  1  0  0  0  0
  3 54  1  0  0  0  0
  3 55  1  0  0  0  0
  4 56  1  0  0  0  0
  4 57  1  0  0  0  0
  4 58  1  0  0  0  0
  5  6  1  0  0  0  0
  5 10  1  0  0  0  0
  5 59  1  1  0  0  0
  6  7  1  0  0  0  0
  6 60  1  0  0  0  0
  6 61  1  0  0  0  0
  7  8  1  0  0  0  0
  7 62  1  0  0  0  0
  7 63  1  0  0  0  0
  8  9  1  0  0  0  0
  8 11  1  0  0  0  0
  8 64  1  1  0  0  0
  9 10  1  0  0  0  0
  9 65  1  0  0  0  0
  9 66  1  0  0  0  0
 10 67  1  0  0  0  0
 10 68  1  0  0  0  0
 11 12  1  0  0  0  0
 11 69  1  0  0  0  0
 11 70  1  0  0  0  0
 12 13  1  0  0  0  0
 12 48  1  0  0  0  0
 12 49  1  6  0  0  0
 13 14  1  0  0  0  0
 13 71  1  0  0  0  0
 13 72  1  0  0  0  0
 14 15  1  0  0  0  0
 14 18  1  0  0  0  0
 15 16  2  0  0  0  0
 15 43  1  0  0  0  0
 16 17  1  0  0  0  0
 16 40  1  0  0  0  0
 17 18  2  0  0  0  0
 17 19  1  0  0  0  0
 19 20  2  0  0  0  0
 19 24  1  0  0  0  0
 20 21  1  0  0  0  0
 20 73  1  0  0  0  0
 21 22  2  0  0  0  0
 21 74  1  0  0  0  0
 22 23  1  0  0  0  0
 22 36  1  0  0  0  0
 23 24  2  0  0  0  0
 23 25  1  0  0  0  0
 24 75  1  0  0  0  0
 25 26  1  0  0  0  0
 26 27  1  0  0  0  0
 26 76  1  0  0  0  0
 26 77  1  0  0  0  0
 27 28  1  0  0  0  0
 27 78  1  0  0  0  0
 27 79  1  0  0  0  0
 28 29  1  0  0  0  0
 28 33  1  0  0  0  0
 28 80  1  0  0  0  0
 29 30  1  0  0  0  0
 29 81  1  0  0  0  0
 29 82  1  0  0  0  0
 30 31  1  0  0  0  0
 30 83  1  0  0  0  0
 30 84  1  0  0  0  0
 31 32  1  0  0  0  0
 31 34  1  0  0  0  0
 31 35  1  0  0  0  0
 32 33  1  0  0  0  0
 32 85  1  0  0  0  0
 32 86  1  0  0  0  0
 33 87  1  0  0  0  0
 33 88  1  0  0  0  0
 36 37  1  0  0  0  0
 36 38  1  0  0  0  0
 36 39  1  0  0  0  0
 40 41  1  0  0  0  0
 40 89  1  0  0  0  0
 40 90  1  0  0  0  0
 41 42  1  0  0  0  0
 41 44  1  0  0  0  0
 42 43  1  0  0  0  0
 42 91  1  0  0  0  0
 42 92  1  0  0  0  0
 43 93  1  0  0  0  0
 43 94  1  0  0  0  0
 44 45  2  0  0  0  0
 44 46  2  0  0  0  0
 44 47  1  0  0  0  0
 47 95  1  0  0  0  0
 47 96  1  0  0  0  0
 47 97  1  0  0  0  0
 48 98  1  0  0  0  0
M  CHG  2   8   1  28   1
M  END
