CatS_373:1_D
 OpenBabel12041818463D

 90 95  0  0  0  0  0  0  0  0999 V2000
   48.5088   -4.8899   38.6596 C   0  0  0  0  0  0  0  0  0  0  0  0
   49.9203   -4.9534   38.3741 O   0  0  0  0  0  0  0  0  0  0  0  0
   50.3246   -5.3785   37.1662 C   0  0  0  0  0  0  0  0  0  0  0  0
   49.8399   -6.5509   36.6033 C   0  0  0  0  0  0  0  0  0  0  0  0
   50.2627   -6.9685   35.3645 C   0  0  0  0  0  0  0  0  0  0  0  0
   51.1788   -6.2199   34.6647 C   0  0  0  0  0  0  0  0  0  0  0  0
   51.6668   -5.0548   35.2089 C   0  0  0  0  0  0  0  0  0  0  0  0
   51.2495   -4.6285   36.4497 C   0  0  0  0  0  0  0  0  0  0  0  0
   51.8394   -3.3145   36.9563 C   0  0  0  0  0  0  0  0  0  0  0  0
   50.8042   -2.3322   37.4375 N   0  3  0  0  0  0  0  0  0  0  0  0
   51.0494   -1.8918   38.8547 C   0  0  0  0  0  0  0  0  0  0  0  0
   49.8093   -1.8658   39.7328 C   0  0  0  0  0  0  0  0  0  0  0  0
   49.8718   -2.3200   41.0348 C   0  0  0  0  0  0  0  0  0  0  0  0
   48.7380   -2.3690   41.8048 C   0  0  0  0  0  0  0  0  0  0  0  0
   47.5186   -1.9590   41.2756 C   0  0  0  0  0  0  0  0  0  0  0  0
   47.4649   -1.4694   39.9754 C   0  0  0  0  0  0  0  0  0  0  0  0
   48.6062   -1.4273   39.2154 C   0  0  0  0  0  0  0  0  0  0  0  0
   46.3224   -2.0889   42.0673 C   0  0  0  0  0  0  0  0  0  0  0  0
   45.3121   -2.2519   42.7319 C   0  0  0  0  0  0  0  0  0  0  0  0
   44.1368   -2.5164   43.5220 C   0  0  0  0  0  0  0  0  0  0  0  0
   43.4626   -3.7330   43.4599 C   0  0  0  0  0  0  0  0  0  0  0  0
   42.3602   -3.9671   44.2604 C   0  0  0  0  0  0  0  0  0  0  0  0
   41.9357   -2.9570   45.1154 C   0  0  0  0  0  0  0  0  0  0  0  0
   42.5924   -1.7486   45.1761 C   0  0  0  0  0  0  0  0  0  0  0  0
   43.6912   -1.5218   44.3879 C   0  0  0  0  0  0  0  0  0  0  0  0
   44.5233    0.0038   44.4864 Cl  0  0  0  0  0  0  0  0  0  0  0  0
   41.6698   -5.2492   44.1995 C   0  0  0  0  0  0  0  0  0  0  0  0
   40.5962   -5.6502   43.3704 C   0  0  0  0  0  0  0  0  0  0  0  0
   40.3563   -6.9117   43.7430 C   0  0  0  0  0  0  0  0  0  0  0  0
   41.1888   -7.3351   44.7377 N   0  0  0  0  0  0  0  0  0  0  0  0
   41.9795   -6.2622   44.9799 N   0  0  0  0  0  0  0  0  0  0  0  0
   41.2809   -8.5952   45.5025 C   0  0  0  0  0  0  0  0  0  0  0  0
   40.0409   -9.3286   46.0567 C   0  0  0  0  0  0  0  0  0  0  0  0
   40.3099  -10.8278   46.3074 C   0  0  0  0  0  0  0  0  0  0  0  0
   40.0379  -11.6956   45.1017 N   0  3  0  0  0  0  0  0  0  0  0  0
   38.5784  -11.6919   44.7134 C   0  0  0  0  0  0  0  0  0  0  0  0
   38.3269  -12.3947   43.3656 C   0  0  0  0  0  0  0  0  0  0  0  0
   38.8442  -14.1278   43.4541 S   0  0  0  0  0  0  0  0  0  0  0  0
   40.5657  -13.8932   43.9638 C   0  0  0  0  0  0  0  0  0  0  0  0
   40.6175  -13.0778   45.2694 C   0  0  0  0  0  0  0  0  0  0  0  0
   39.2362   -7.7229   43.1074 C   0  0  0  0  0  0  0  0  0  0  0  0
   38.7032   -7.1500   41.7728 C   0  0  0  0  0  0  0  0  0  0  0  0
   38.7086   -5.6720   41.6804 N   0  0  0  0  0  0  0  0  0  0  0  0
   39.8180   -4.9084   42.2911 C   0  0  0  0  0  0  0  0  0  0  0  0
   37.7642   -4.9851   40.9892 C   0  0  0  0  0  0  0  0  0  0  0  0
   37.6437   -3.7616   41.1146 O   0  0  0  0  0  0  0  0  0  0  0  0
   36.9669   -5.6506   40.1288 N   0  0  0  0  0  0  0  0  0  0  0  0
   47.9998   -5.1950   37.8547 H   0  0  0  0  0  0  0  0  0  0  0  0
   48.2945   -5.4807   39.4375 H   0  0  0  0  0  0  0  0  0  0  0  0
   48.2528   -3.9498   38.8847 H   0  0  0  0  0  0  0  0  0  0  0  0
   49.1730   -7.0999   37.1070 H   0  0  0  0  0  0  0  0  0  0  0  0
   49.9043   -7.8158   34.9725 H   0  0  0  0  0  0  0  0  0  0  0  0
   51.4893   -6.5214   33.7632 H   0  0  0  0  0  0  0  0  0  0  0  0
   52.3323   -4.5112   34.6974 H   0  0  0  0  0  0  0  0  0  0  0  0
   52.3577   -2.8919   36.2128 H   0  0  0  0  0  0  0  0  0  0  0  0
   52.4167   -3.5371   37.7419 H   0  0  0  0  0  0  0  0  0  0  0  0
   50.7790   -1.6045   36.8902 H   0  0  0  0  0  0  0  0  0  0  0  0
   49.9736   -2.6998   37.3625 H   0  0  0  0  0  0  0  0  0  0  0  0
   51.4389   -0.9710   38.8335 H   0  0  0  0  0  0  0  0  0  0  0  0
   51.6666   -2.5671   39.2582 H   0  0  0  0  0  0  0  0  0  0  0  0
   50.7474   -2.6144   41.4180 H   0  0  0  0  0  0  0  0  0  0  0  0
   48.7879   -2.6997   42.7472 H   0  0  0  0  0  0  0  0  0  0  0  0
   46.5971   -1.1489   39.5955 H   0  0  0  0  0  0  0  0  0  0  0  0
   48.5667   -1.0764   38.2798 H   0  0  0  0  0  0  0  0  0  0  0  0
   43.7784   -4.4434   42.8309 H   0  0  0  0  0  0  0  0  0  0  0  0
   41.1376   -3.1111   45.6979 H   0  0  0  0  0  0  0  0  0  0  0  0
   42.2674   -1.0347   45.7963 H   0  0  0  0  0  0  0  0  0  0  0  0
   41.8644   -8.3996   46.2906 H   0  0  0  0  0  0  0  0  0  0  0  0
   41.5953   -9.2347   44.8009 H   0  0  0  0  0  0  0  0  0  0  0  0
   39.2923   -9.2393   45.3996 H   0  0  0  0  0  0  0  0  0  0  0  0
   39.8055   -8.9107   46.9341 H   0  0  0  0  0  0  0  0  0  0  0  0
   39.7270  -11.1344   47.0598 H   0  0  0  0  0  0  0  0  0  0  0  0
   41.2820  -10.9210   46.5233 H   0  0  0  0  0  0  0  0  0  0  0  0
   40.4810  -11.3227   44.3990 H   0  0  0  0  0  0  0  0  0  0  0  0
   38.2646  -10.7446   44.6478 H   0  0  0  0  0  0  0  0  0  0  0  0
   38.0750  -12.1944   45.4162 H   0  0  0  0  0  0  0  0  0  0  0  0
   38.8448  -11.9295   42.6477 H   0  0  0  0  0  0  0  0  0  0  0  0
   37.3495  -12.3586   43.1576 H   0  0  0  0  0  0  0  0  0  0  0  0
   41.0626  -13.4063   43.2455 H   0  0  0  0  0  0  0  0  0  0  0  0
   40.9889  -14.7862   44.1169 H   0  0  0  0  0  0  0  0  0  0  0  0
   40.1002  -13.5620   45.9751 H   0  0  0  0  0  0  0  0  0  0  0  0
   41.5779  -12.9780   45.5295 H   0  0  0  0  0  0  0  0  0  0  0  0
   38.4761   -7.7690   43.7556 H   0  0  0  0  0  0  0  0  0  0  0  0
   39.6223   -8.6205   42.8948 H   0  0  0  0  0  0  0  0  0  0  0  0
   37.7628   -7.4675   41.6508 H   0  0  0  0  0  0  0  0  0  0  0  0
   39.3250   -7.4757   41.0606 H   0  0  0  0  0  0  0  0  0  0  0  0
   40.4576   -4.6533   41.5661 H   0  0  0  0  0  0  0  0  0  0  0  0
   39.3971   -4.1217   42.7428 H   0  0  0  0  0  0  0  0  0  0  0  0
   37.0828   -6.5049   39.9689 H   0  0  0  0  0  0  0  0  0  0  0  0
   36.3334   -5.2139   39.7019 H   0  0  0  0  0  0  0  0  0  0  0  0
  1  2  1  0  0  0  0
  1 48  1  0  0  0  0
  1 49  1  0  0  0  0
  1 50  1  0  0  0  0
  2  3  1  0  0  0  0
  3  4  2  0  0  0  0
  3  8  1  0  0  0  0
  4  5  1  0  0  0  0
  4 51  1  0  0  0  0
  5  6  2  0  0  0  0
  5 52  1  0  0  0  0
  6  7  1  0  0  0  0
  6 53  1  0  0  0  0
  7  8  2  0  0  0  0
  7 54  1  0  0  0  0
  8  9  1  0  0  0  0
  9 10  1  0  0  0  0
  9 55  1  0  0  0  0
  9 56  1  0  0  0  0
 10 11  1  0  0  0  0
 10 57  1  0  0  0  0
 10 58  1  0  0  0  0
 11 12  1  0  0  0  0
 11 59  1  0  0  0  0
 11 60  1  0  0  0  0
 12 13  2  0  0  0  0
 12 17  1  0  0  0  0
 13 14  1  0  0  0  0
 13 61  1  0  0  0  0
 14 15  2  0  0  0  0
 14 62  1  0  0  0  0
 15 16  1  0  0  0  0
 15 18  1  0  0  0  0
 16 17  2  0  0  0  0
 16 63  1  0  0  0  0
 17 64  1  0  0  0  0
 18 19  3  0  0  0  0
 19 20  1  0  0  0  0
 20 21  2  0  0  0  0
 20 25  1  0  0  0  0
 21 22  1  0  0  0  0
 21 65  1  0  0  0  0
 22 23  2  0  0  0  0
 22 27  1  0  0  0  0
 23 24  1  0  0  0  0
 23 66  1  0  0  0  0
 24 25  2  0  0  0  0
 24 67  1  0  0  0  0
 25 26  1  0  0  0  0
 27 28  1  0  0  0  0
 27 31  2  0  0  0  0
 28 29  2  0  0  0  0
 28 44  1  0  0  0  0
 29 30  1  0  0  0  0
 29 41  1  0  0  0  0
 30 31  1  0  0  0  0
 30 32  1  0  0  0  0
 32 33  1  0  0  0  0
 32 68  1  0  0  0  0
 32 69  1  0  0  0  0
 33 34  1  0  0  0  0
 33 70  1  0  0  0  0
 33 71  1  0  0  0  0
 34 35  1  0  0  0  0
 34 72  1  0  0  0  0
 34 73  1  0  0  0  0
 35 36  1  0  0  0  0
 35 40  1  0  0  0  0
 35 74  1  0  0  0  0
 36 37  1  0  0  0  0
 36 75  1  0  0  0  0
 36 76  1  0  0  0  0
 37 38  1  0  0  0  0
 37 77  1  0  0  0  0
 37 78  1  0  0  0  0
 38 39  1  0  0  0  0
 39 40  1  0  0  0  0
 39 79  1  0  0  0  0
 39 80  1  0  0  0  0
 40 81  1  0  0  0  0
 40 82  1  0  0  0  0
 41 42  1  0  0  0  0
 41 83  1  0  0  0  0
 41 84  1  0  0  0  0
 42 43  1  0  0  0  0
 42 85  1  0  0  0  0
 42 86  1  0  0  0  0
 43 44  1  0  0  0  0
 43 45  1  0  0  0  0
 44 87  1  0  0  0  0
 44 88  1  0  0  0  0
 45 46  2  0  0  0  0
 45 47  1  0  0  0  0
 47 89  1  0  0  0  0
 47 90  1  0  0  0  0
M  CHG  2  10   1  35   1
M  END
