CatS_359:1_D
 OpenBabel12041818463D

 84 88  0  0  0  0  0  0  0  0999 V2000
   43.1513   -7.6184   36.5504 C   0  0  0  0  0  0  0  0  0  0  0  0
   42.0541   -8.4656   36.9326 O   0  0  0  0  0  0  0  0  0  0  0  0
   41.3276   -8.0806   37.9953 C   0  0  0  0  0  0  0  0  0  0  0  0
   41.8160   -7.8885   39.0939 O   0  0  0  0  0  0  0  0  0  0  0  0
   39.8677   -7.9320   37.6362 C   0  0  0  0  0  0  0  0  0  0  0  0
   39.0113   -8.4789   38.7431 N   0  3  0  0  0  0  0  0  0  0  0  0
   37.6026   -7.9484   38.7395 C   0  0  0  0  0  0  0  0  0  0  0  0
   37.4357   -6.6949   39.5863 C   0  0  0  0  0  0  0  0  0  0  0  0
   36.4186   -5.7908   39.3509 C   0  0  0  0  0  0  0  0  0  0  0  0
   36.2755   -4.6746   40.1515 C   0  0  0  0  0  0  0  0  0  0  0  0
   37.1415   -4.4510   41.1924 C   0  0  0  0  0  0  0  0  0  0  0  0
   38.1730   -5.3520   41.4315 C   0  0  0  0  0  0  0  0  0  0  0  0
   38.3112   -6.4705   40.6176 C   0  0  0  0  0  0  0  0  0  0  0  0
   39.1130   -5.1733   42.5075 C   0  0  0  0  0  0  0  0  0  0  0  0
   39.9595   -5.0320   43.3743 C   0  0  0  0  0  0  0  0  0  0  0  0
   41.0230   -4.8760   44.3331 C   0  0  0  0  0  0  0  0  0  0  0  0
   41.6998   -3.6719   44.5068 C   0  0  0  0  0  0  0  0  0  0  0  0
   42.6794   -3.5546   45.4753 C   0  0  0  0  0  0  0  0  0  0  0  0
   42.9813   -4.6641   46.2553 C   0  0  0  0  0  0  0  0  0  0  0  0
   42.3274   -5.8621   46.0762 C   0  0  0  0  0  0  0  0  0  0  0  0
   41.3494   -5.9760   45.1220 C   0  0  0  0  0  0  0  0  0  0  0  0
   40.5243   -7.4945   44.9082 Cl  0  0  0  0  0  0  0  0  0  0  0  0
   43.3721   -2.2897   45.6790 C   0  0  0  0  0  0  0  0  0  0  0  0
   44.2653   -1.6225   44.8043 C   0  0  0  0  0  0  0  0  0  0  0  0
   44.6431   -0.5483   45.4972 C   0  0  0  0  0  0  0  0  0  0  0  0
   44.0383   -0.4654   46.7043 N   0  0  0  0  0  0  0  0  0  0  0  0
   43.2594   -1.5713   46.7793 N   0  0  0  0  0  0  0  0  0  0  0  0
   44.1173    0.6041   47.7065 C   0  0  0  0  0  0  0  0  0  0  0  0
   42.8255    1.3535   48.0765 C   0  0  0  0  0  0  0  0  0  0  0  0
   42.2240    0.8875   49.4232 C   0  0  0  0  0  0  0  0  0  0  0  0
   41.5989   -0.4902   49.4179 N   0  3  0  0  0  0  0  0  0  0  0  0
   40.2048   -0.4737   49.9959 C   0  0  0  0  0  0  0  0  0  0  0  0
   39.5984   -1.8908   49.9956 C   0  0  0  0  0  0  0  0  0  0  0  0
   40.4669   -2.8166   50.6754 O   0  0  0  0  0  0  0  0  0  0  0  0
   41.7565   -2.9125   50.0444 C   0  0  0  0  0  0  0  0  0  0  0  0
   42.4660   -1.5454   50.0639 C   0  0  0  0  0  0  0  0  0  0  0  0
   45.6414    0.4587   44.9570 C   0  0  0  0  0  0  0  0  0  0  0  0
   46.4102   -0.1241   43.7501 C   0  0  0  0  0  0  0  0  0  0  0  0
   45.4761   -0.7279   42.7770 N   0  0  0  0  0  0  0  0  0  0  0  0
   44.8076   -1.8934   43.4060 C   0  0  0  0  0  0  0  0  0  0  0  0
   46.0072   -1.0156   41.2694 S   0  0  0  0  0  0  0  0  0  0  0  0
   46.5801    0.2049   40.8074 O   0  0  0  0  0  0  0  0  0  0  0  0
   44.9021   -1.5369   40.5364 O   0  0  0  0  0  0  0  0  0  0  0  0
   47.3203   -2.2685   41.3067 C   0  0  0  0  0  0  0  0  0  0  0  0
   43.1936   -6.8387   37.1751 H   0  0  0  0  0  0  0  0  0  0  0  0
   44.0074   -8.1331   36.5959 H   0  0  0  0  0  0  0  0  0  0  0  0
   43.0160   -7.2940   35.6142 H   0  0  0  0  0  0  0  0  0  0  0  0
   39.6801   -8.4316   36.7905 H   0  0  0  0  0  0  0  0  0  0  0  0
   39.6574   -6.9630   37.5064 H   0  0  0  0  0  0  0  0  0  0  0  0
   39.4042   -8.3031   39.5454 H   0  0  0  0  0  0  0  0  0  0  0  0
   39.0064   -9.3883   38.6921 H   0  0  0  0  0  0  0  0  0  0  0  0
   36.9927   -8.6578   39.0928 H   0  0  0  0  0  0  0  0  0  0  0  0
   37.3787   -7.7021   37.7965 H   0  0  0  0  0  0  0  0  0  0  0  0
   35.7815   -5.9454   38.5957 H   0  0  0  0  0  0  0  0  0  0  0  0
   35.5365   -4.0254   39.9717 H   0  0  0  0  0  0  0  0  0  0  0  0
   37.0313   -3.6456   41.7748 H   0  0  0  0  0  0  0  0  0  0  0  0
   39.0556   -7.1169   40.7856 H   0  0  0  0  0  0  0  0  0  0  0  0
   41.4763   -2.8877   43.9280 H   0  0  0  0  0  0  0  0  0  0  0  0
   43.6869   -4.5909   46.9602 H   0  0  0  0  0  0  0  0  0  0  0  0
   42.5661   -6.6506   46.6431 H   0  0  0  0  0  0  0  0  0  0  0  0
   44.7689    1.2824   47.3668 H   0  0  0  0  0  0  0  0  0  0  0  0
   44.3779    0.1334   48.5494 H   0  0  0  0  0  0  0  0  0  0  0  0
   42.1502    1.2044   47.3541 H   0  0  0  0  0  0  0  0  0  0  0  0
   43.0572    2.3216   48.1718 H   0  0  0  0  0  0  0  0  0  0  0  0
   41.5210    1.5460   49.6922 H   0  0  0  0  0  0  0  0  0  0  0  0
   42.9915    0.8358   50.0622 H   0  0  0  0  0  0  0  0  0  0  0  0
   41.5036   -0.7335   48.5448 H   0  0  0  0  0  0  0  0  0  0  0  0
   39.6281    0.1331   49.4489 H   0  0  0  0  0  0  0  0  0  0  0  0
   40.2519   -0.1456   50.9394 H   0  0  0  0  0  0  0  0  0  0  0  0
   39.4671   -2.1930   49.0514 H   0  0  0  0  0  0  0  0  0  0  0  0
   38.7208   -1.8648   50.4743 H   0  0  0  0  0  0  0  0  0  0  0  0
   41.6404   -3.2130   49.0977 H   0  0  0  0  0  0  0  0  0  0  0  0
   42.3147   -3.5737   50.5456 H   0  0  0  0  0  0  0  0  0  0  0  0
   42.6555   -1.2835   51.0103 H   0  0  0  0  0  0  0  0  0  0  0  0
   43.3216   -1.6190   49.5516 H   0  0  0  0  0  0  0  0  0  0  0  0
   46.2913    0.6977   45.6785 H   0  0  0  0  0  0  0  0  0  0  0  0
   45.1446    1.2727   44.6562 H   0  0  0  0  0  0  0  0  0  0  0  0
   47.0491   -0.8226   44.0724 H   0  0  0  0  0  0  0  0  0  0  0  0
   46.9081    0.6164   43.2986 H   0  0  0  0  0  0  0  0  0  0  0  0
   44.0462   -2.1744   42.8218 H   0  0  0  0  0  0  0  0  0  0  0  0
   45.5032   -2.6056   43.5007 H   0  0  0  0  0  0  0  0  0  0  0  0
   47.0124   -3.0779   40.8067 H   0  0  0  0  0  0  0  0  0  0  0  0
   48.1477   -1.9035   40.8798 H   0  0  0  0  0  0  0  0  0  0  0  0
   47.5244   -2.5142   42.2542 H   0  0  0  0  0  0  0  0  0  0  0  0
  1  2  1  0  0  0  0
  1 45  1  0  0  0  0
  1 46  1  0  0  0  0
  1 47  1  0  0  0  0
  2  3  1  0  0  0  0
  3  4  2  0  0  0  0
  3  5  1  0  0  0  0
  5  6  1  0  0  0  0
  5 48  1  0  0  0  0
  5 49  1  0  0  0  0
  6  7  1  0  0  0  0
  6 50  1  0  0  0  0
  6 51  1  0  0  0  0
  7  8  1  0  0  0  0
  7 52  1  0  0  0  0
  7 53  1  0  0  0  0
  8  9  2  0  0  0  0
  8 13  1  0  0  0  0
  9 10  1  0  0  0  0
  9 54  1  0  0  0  0
 10 11  2  0  0  0  0
 10 55  1  0  0  0  0
 11 12  1  0  0  0  0
 11 56  1  0  0  0  0
 12 13  2  0  0  0  0
 12 14  1  0  0  0  0
 13 57  1  0  0  0  0
 14 15  3  0  0  0  0
 15 16  1  0  0  0  0
 16 17  2  0  0  0  0
 16 21  1  0  0  0  0
 17 18  1  0  0  0  0
 17 58  1  0  0  0  0
 18 19  2  0  0  0  0
 18 23  1  0  0  0  0
 19 20  1  0  0  0  0
 19 59  1  0  0  0  0
 20 21  2  0  0  0  0
 20 60  1  0  0  0  0
 21 22  1  0  0  0  0
 23 24  1  0  0  0  0
 23 27  2  0  0  0  0
 24 25  2  0  0  0  0
 24 40  1  0  0  0  0
 25 26  1  0  0  0  0
 25 37  1  0  0  0  0
 26 27  1  0  0  0  0
 26 28  1  0  0  0  0
 28 29  1  0  0  0  0
 28 61  1  0  0  0  0
 28 62  1  0  0  0  0
 29 30  1  0  0  0  0
 29 63  1  0  0  0  0
 29 64  1  0  0  0  0
 30 31  1  0  0  0  0
 30 65  1  0  0  0  0
 30 66  1  0  0  0  0
 31 32  1  0  0  0  0
 31 36  1  0  0  0  0
 31 67  1  0  0  0  0
 32 33  1  0  0  0  0
 32 68  1  0  0  0  0
 32 69  1  0  0  0  0
 33 34  1  0  0  0  0
 33 70  1  0  0  0  0
 33 71  1  0  0  0  0
 34 35  1  0  0  0  0
 35 36  1  0  0  0  0
 35 72  1  0  0  0  0
 35 73  1  0  0  0  0
 36 74  1  0  0  0  0
 36 75  1  0  0  0  0
 37 38  1  0  0  0  0
 37 76  1  0  0  0  0
 37 77  1  0  0  0  0
 38 39  1  0  0  0  0
 38 78  1  0  0  0  0
 38 79  1  0  0  0  0
 39 40  1  0  0  0  0
 39 41  1  0  0  0  0
 40 80  1  0  0  0  0
 40 81  1  0  0  0  0
 41 42  2  0  0  0  0
 41 43  2  0  0  0  0
 41 44  1  0  0  0  0
 44 82  1  0  0  0  0
 44 83  1  0  0  0  0
 44 84  1  0  0  0  0
M  CHG  2   6   1  31   1
M  END
