CatS_281:1_D
 OpenBabel12041818463D

 88 93  0  0  1  0  0  0  0  0999 V2000
   37.7479   -3.8798   41.2682 C   0  0  0  0  0  0  0  0  0  0  0  0
   37.0891   -5.2022   40.8150 C   0  0  1  0  0  0  0  0  0  0  0  0
   35.7050   -4.8991   40.2021 C   0  0  0  0  0  0  0  0  0  0  0  0
   35.0298   -6.1172   39.8369 O   0  0  0  0  0  0  0  0  0  0  0  0
   35.7389   -6.8491   38.8194 C   0  0  0  0  0  0  0  0  0  0  0  0
   37.1578   -7.2267   39.2906 C   0  0  0  0  0  0  0  0  0  0  0  0
   37.8980   -6.0173   39.8183 N   0  3  2  0  0  0  0  0  0  0  0  0
   39.3086   -6.3635   40.2494 C   0  0  0  0  0  0  0  0  0  0  0  0
   39.4475   -7.5264   41.2613 C   0  0  0  0  0  0  0  0  0  0  0  0
   39.0836   -7.1256   42.7024 C   0  0  0  0  0  0  0  0  0  0  0  0
   40.1440   -6.5233   43.5234 N   0  0  0  0  0  0  0  0  0  0  0  0
   40.6772   -6.9583   44.6903 C   0  0  0  0  0  0  0  0  0  0  0  0
   41.5892   -6.1229   45.1888 C   0  0  0  0  0  0  0  0  0  0  0  0
   41.6200   -5.0653   44.2484 C   0  0  0  0  0  0  0  0  0  0  0  0
   40.7575   -5.3374   43.2856 N   0  0  0  0  0  0  0  0  0  0  0  0
   42.4316   -3.8562   44.2838 C   0  0  0  0  0  0  0  0  0  0  0  0
   42.0428   -2.8105   45.1113 C   0  0  0  0  0  0  0  0  0  0  0  0
   42.7857   -1.6538   45.1899 C   0  0  0  0  0  0  0  0  0  0  0  0
   43.9264   -1.5174   44.4414 C   0  0  0  0  0  0  0  0  0  0  0  0
   44.3300   -2.5453   43.5925 C   0  0  0  0  0  0  0  0  0  0  0  0
   43.5787   -3.7171   43.5210 C   0  0  0  0  0  0  0  0  0  0  0  0
   45.5242   -2.2912   42.8250 C   0  0  0  0  0  0  0  0  0  0  0  0
   46.5079   -2.1846   42.1080 C   0  0  0  0  0  0  0  0  0  0  0  0
   47.6295   -2.1699   41.2029 C   0  0  0  0  0  0  0  0  0  0  0  0
   47.3564   -2.0602   39.8437 C   0  0  0  0  0  0  0  0  0  0  0  0
   48.3759   -2.0845   38.9299 C   0  0  0  0  0  0  0  0  0  0  0  0
   49.6838   -2.2195   39.3444 C   0  0  0  0  0  0  0  0  0  0  0  0
   49.9616   -2.3184   40.6966 C   0  0  0  0  0  0  0  0  0  0  0  0
   48.9495   -2.2910   41.6251 C   0  0  0  0  0  0  0  0  0  0  0  0
   50.7331   -2.2691   38.2390 C   0  0  0  0  0  0  0  0  0  0  0  0
   50.2232   -2.6028   36.8606 N   0  3  0  0  0  0  0  0  0  0  0  0
   51.1469   -3.4448   36.0149 C   0  0  0  0  0  0  0  0  0  0  0  0
   50.7242   -4.8992   36.0636 C   0  0  0  0  0  0  0  0  0  0  0  0
   50.3266   -5.5446   37.1398 C   0  0  0  0  0  0  0  0  0  0  0  0
   49.9727   -6.9222   36.8945 C   0  0  0  0  0  0  0  0  0  0  0  0
   50.1143   -7.2778   35.6366 C   0  0  0  0  0  0  0  0  0  0  0  0
   50.7062   -5.9420   34.6157 S   0  0  0  0  0  0  0  0  0  0  0  0
   44.8641   -0.0514   44.5516 Cl  0  0  0  0  0  0  0  0  0  0  0  0
   42.3088   -6.4006   46.5085 C   0  0  0  0  0  0  0  0  0  0  0  0
   42.1404   -7.7757   47.0455 N   0  0  0  0  0  0  0  0  0  0  0  0
   40.7304   -8.1914   46.8799 C   0  0  0  0  0  0  0  0  0  0  0  0
   40.2968   -8.2452   45.3967 C   0  0  0  0  0  0  0  0  0  0  0  0
   42.7352   -8.0772   48.5406 S   0  0  0  0  0  0  0  0  0  0  0  0
   42.4443   -9.4340   48.8564 O   0  0  0  0  0  0  0  0  0  0  0  0
   44.1303   -7.7891   48.5421 O   0  0  0  0  0  0  0  0  0  0  0  0
   41.9248   -7.0046   49.7628 C   0  0  0  0  0  0  0  0  0  0  0  0
   37.0221   -5.7631   41.6402 H   0  0  0  0  0  0  0  0  0  0  0  0
   37.2924   -3.1158   40.8112 H   0  0  0  0  0  0  0  0  0  0  0  0
   37.6594   -3.7805   42.2593 H   0  0  0  0  0  0  0  0  0  0  0  0
   38.7184   -3.8873   41.0272 H   0  0  0  0  0  0  0  0  0  0  0  0
   35.8226   -4.3297   39.3885 H   0  0  0  0  0  0  0  0  0  0  0  0
   35.1515   -4.4189   40.8826 H   0  0  0  0  0  0  0  0  0  0  0  0
   35.8050   -6.2852   37.9962 H   0  0  0  0  0  0  0  0  0  0  0  0
   35.2358   -7.6916   38.6270 H   0  0  0  0  0  0  0  0  0  0  0  0
   37.6665   -7.6139   38.5216 H   0  0  0  0  0  0  0  0  0  0  0  0
   37.0787   -7.8957   40.0297 H   0  0  0  0  0  0  0  0  0  0  0  0
   37.9987   -5.4772   39.0902 H   0  0  0  0  0  0  0  0  0  0  0  0
   39.7120   -5.5468   40.6620 H   0  0  0  0  0  0  0  0  0  0  0  0
   39.7728   -6.6751   39.4203 H   0  0  0  0  0  0  0  0  0  0  0  0
   40.3940   -7.8490   41.2483 H   0  0  0  0  0  0  0  0  0  0  0  0
   38.8050   -8.2401   40.9824 H   0  0  0  0  0  0  0  0  0  0  0  0
   38.7668   -7.9488   43.1735 H   0  0  0  0  0  0  0  0  0  0  0  0
   38.3979   -6.4047   42.6025 H   0  0  0  0  0  0  0  0  0  0  0  0
   41.2105   -2.8990   45.6584 H   0  0  0  0  0  0  0  0  0  0  0  0
   42.4930   -0.9123   45.7938 H   0  0  0  0  0  0  0  0  0  0  0  0
   43.8690   -4.4595   42.9172 H   0  0  0  0  0  0  0  0  0  0  0  0
   46.4111   -1.9632   39.5322 H   0  0  0  0  0  0  0  0  0  0  0  0
   48.1702   -2.0038   37.9546 H   0  0  0  0  0  0  0  0  0  0  0  0
   50.9096   -2.4108   41.0011 H   0  0  0  0  0  0  0  0  0  0  0  0
   49.1607   -2.3579   42.6003 H   0  0  0  0  0  0  0  0  0  0  0  0
   51.4135   -2.9573   38.4914 H   0  0  0  0  0  0  0  0  0  0  0  0
   51.0995   -1.3411   38.1727 H   0  0  0  0  0  0  0  0  0  0  0  0
   50.0510   -1.8250   36.4180 H   0  0  0  0  0  0  0  0  0  0  0  0
   49.3999   -2.9859   36.9317 H   0  0  0  0  0  0  0  0  0  0  0  0
   52.0819   -3.3585   36.3588 H   0  0  0  0  0  0  0  0  0  0  0  0
   51.1024   -3.1257   35.0682 H   0  0  0  0  0  0  0  0  0  0  0  0
   50.2747   -5.1198   38.0436 H   0  0  0  0  0  0  0  0  0  0  0  0
   49.6519   -7.5436   37.6093 H   0  0  0  0  0  0  0  0  0  0  0  0
   49.9127   -8.1945   35.2916 H   0  0  0  0  0  0  0  0  0  0  0  0
   41.9653   -5.7555   47.1911 H   0  0  0  0  0  0  0  0  0  0  0  0
   43.2851   -6.2967   46.3185 H   0  0  0  0  0  0  0  0  0  0  0  0
   40.1444   -7.5417   47.3641 H   0  0  0  0  0  0  0  0  0  0  0  0
   40.6409   -9.1145   47.2540 H   0  0  0  0  0  0  0  0  0  0  0  0
   40.7474   -9.0160   44.9463 H   0  0  0  0  0  0  0  0  0  0  0  0
   39.3043   -8.3589   45.3531 H   0  0  0  0  0  0  0  0  0  0  0  0
   42.6150   -6.4245   50.1953 H   0  0  0  0  0  0  0  0  0  0  0  0
   41.2404   -6.4333   49.3098 H   0  0  0  0  0  0  0  0  0  0  0  0
   41.4729   -7.5659   50.4561 H   0  0  0  0  0  0  0  0  0  0  0  0
  1  2  1  0  0  0  0
  1 48  1  0  0  0  0
  1 49  1  0  0  0  0
  1 50  1  0  0  0  0
  2  3  1  0  0  0  0
  2  7  1  0  0  0  0
  2 47  1  1  0  0  0
  3  4  1  0  0  0  0
  3 51  1  0  0  0  0
  3 52  1  0  0  0  0
  4  5  1  0  0  0  0
  5  6  1  0  0  0  0
  5 53  1  0  0  0  0
  5 54  1  0  0  0  0
  6  7  1  0  0  0  0
  6 55  1  0  0  0  0
  6 56  1  0  0  0  0
  7  8  1  0  0  0  0
  7 57  1  6  0  0  0
  8  9  1  0  0  0  0
  8 58  1  0  0  0  0
  8 59  1  0  0  0  0
  9 10  1  0  0  0  0
  9 60  1  0  0  0  0
  9 61  1  0  0  0  0
 10 11  1  0  0  0  0
 10 62  1  0  0  0  0
 10 63  1  0  0  0  0
 11 12  1  0  0  0  0
 11 15  1  0  0  0  0
 12 13  2  0  0  0  0
 12 42  1  0  0  0  0
 13 14  1  0  0  0  0
 13 39  1  0  0  0  0
 14 15  2  0  0  0  0
 14 16  1  0  0  0  0
 16 17  2  0  0  0  0
 16 21  1  0  0  0  0
 17 18  1  0  0  0  0
 17 64  1  0  0  0  0
 18 19  2  0  0  0  0
 18 65  1  0  0  0  0
 19 20  1  0  0  0  0
 19 38  1  0  0  0  0
 20 21  2  0  0  0  0
 20 22  1  0  0  0  0
 21 66  1  0  0  0  0
 22 23  3  0  0  0  0
 23 24  1  0  0  0  0
 24 25  2  0  0  0  0
 24 29  1  0  0  0  0
 25 26  1  0  0  0  0
 25 67  1  0  0  0  0
 26 27  2  0  0  0  0
 26 68  1  0  0  0  0
 27 28  1  0  0  0  0
 27 30  1  0  0  0  0
 28 29  2  0  0  0  0
 28 69  1  0  0  0  0
 29 70  1  0  0  0  0
 30 31  1  0  0  0  0
 30 71  1  0  0  0  0
 30 72  1  0  0  0  0
 31 32  1  0  0  0  0
 31 73  1  0  0  0  0
 31 74  1  0  0  0  0
 32 33  1  0  0  0  0
 32 75  1  0  0  0  0
 32 76  1  0  0  0  0
 33 34  2  0  0  0  0
 33 37  1  0  0  0  0
 34 35  1  0  0  0  0
 34 77  1  0  0  0  0
 35 36  2  0  0  0  0
 35 78  1  0  0  0  0
 36 37  1  0  0  0  0
 36 79  1  0  0  0  0
 39 40  1  0  0  0  0
 39 80  1  0  0  0  0
 39 81  1  0  0  0  0
 40 41  1  0  0  0  0
 40 43  1  0  0  0  0
 41 42  1  0  0  0  0
 41 82  1  0  0  0  0
 41 83  1  0  0  0  0
 42 84  1  0  0  0  0
 42 85  1  0  0  0  0
 43 44  2  0  0  0  0
 43 45  2  0  0  0  0
 43 46  1  0  0  0  0
 46 86  1  0  0  0  0
 46 87  1  0  0  0  0
 46 88  1  0  0  0  0
M  CHG  2   7   1  31   1
M  END
