CatS_14:1_D
 OpenBabel12041818463D

107112  0  0  0  0  0  0  0  0999 V2000
   52.8509   -7.8952   32.8338 C   0  0  0  0  0  0  0  0  0  0  0  0
   51.9753   -8.5878   33.8931 C   0  0  0  0  0  0  0  0  0  0  0  0
   50.6494   -8.0260   33.9449 O   0  0  0  0  0  0  0  0  0  0  0  0
   50.2375   -7.4960   35.1273 C   0  0  0  0  0  0  0  0  0  0  0  0
   49.2227   -7.9008   35.6910 O   0  0  0  0  0  0  0  0  0  0  0  0
   51.0426   -6.5194   35.5943 N   0  0  0  0  0  0  0  0  0  0  0  0
   50.4564   -5.3400   36.2455 C   0  0  1  0  0  0  0  0  0  0  0  0
   50.2212   -5.6078   37.7446 C   0  0  0  0  0  0  0  0  0  0  0  0
   49.5265   -4.3814   38.3673 C   0  0  0  0  0  0  0  0  0  0  0  0
   50.3761   -3.1444   38.2043 N   0  3  1  0  0  0  0  0  0  0  0  0
   50.7001   -2.8755   36.7550 C   0  0  0  0  0  0  0  0  0  0  0  0
   51.3635   -4.1019   36.0932 C   0  0  0  0  0  0  0  0  0  0  0  0
   49.8146   -1.9195   38.8853 C   0  0  0  0  0  0  0  0  0  0  0  0
   49.1179   -2.2015   40.2352 C   0  0  0  0  0  0  0  0  0  0  0  0
   48.8598   -0.6490   41.1348 S   0  0  0  0  0  0  0  0  0  0  0  0
   48.3069   -1.0691   42.7921 C   0  0  0  0  0  0  0  0  0  0  0  0
   46.9543   -1.2295   42.9772 C   0  0  0  0  0  0  0  0  0  0  0  0
   46.4457   -1.5943   44.2093 C   0  0  0  0  0  0  0  0  0  0  0  0
   47.3282   -1.7686   45.2606 C   0  0  0  0  0  0  0  0  0  0  0  0
   48.6800   -1.5991   45.0724 C   0  0  0  0  0  0  0  0  0  0  0  0
   49.1975   -1.2544   43.8399 C   0  0  0  0  0  0  0  0  0  0  0  0
   50.7151   -1.1214   43.7373 C   0  0  0  0  0  0  0  0  0  0  0  0
   51.2398   -2.0755   42.8719 F   0  0  0  0  0  0  0  0  0  0  0  0
   51.3617   -1.2857   44.9587 F   0  0  0  0  0  0  0  0  0  0  0  0
   51.0812    0.1286   43.2517 F   0  0  0  0  0  0  0  0  0  0  0  0
   45.0118   -1.7847   44.3373 C   0  0  0  0  0  0  0  0  0  0  0  0
   44.0691   -1.0378   45.0835 C   0  0  0  0  0  0  0  0  0  0  0  0
   42.9304   -1.7088   44.9018 C   0  0  0  0  0  0  0  0  0  0  0  0
   43.0754   -2.7832   44.0837 N   0  0  0  0  0  0  0  0  0  0  0  0
   44.3868   -2.7909   43.7655 N   0  0  0  0  0  0  0  0  0  0  0  0
   42.1106   -3.8078   43.6637 C   0  0  0  0  0  0  0  0  0  0  0  0
   42.2442   -5.1130   44.4704 C   0  0  0  0  0  0  0  0  0  0  0  0
   40.9097   -5.8895   44.5361 C   0  0  0  0  0  0  0  0  0  0  0  0
   40.1395   -5.8528   43.2368 N   0  3  1  0  0  0  0  0  0  0  0  0
   39.5842   -7.1943   42.8293 C   0  0  0  0  0  0  0  0  0  0  0  0
   38.9685   -7.1089   41.4159 C   0  0  0  0  0  0  0  0  0  0  0  0
   37.8787   -6.0165   41.3645 C   0  0  1  0  0  0  0  0  0  0  0  0
   38.4657   -4.6549   41.8007 C   0  0  0  0  0  0  0  0  0  0  0  0
   39.0821   -4.7759   43.2098 C   0  0  0  0  0  0  0  0  0  0  0  0
   37.2036   -6.0489   40.0533 N   0  0  0  0  0  0  0  0  0  0  0  0
   37.5667   -5.1190   38.9784 C   0  0  0  0  0  0  0  0  0  0  0  0
   36.8273   -5.7535   37.7863 C   0  0  0  0  0  0  0  0  0  0  0  0
   35.7012   -6.6121   38.3862 C   0  0  0  0  0  0  0  0  0  0  0  0
   36.1848   -6.8778   39.7865 C   0  0  0  0  0  0  0  0  0  0  0  0
   35.7049   -7.7200   40.5318 O   0  0  0  0  0  0  0  0  0  0  0  0
   41.6478   -1.2817   45.5918 C   0  0  0  0  0  0  0  0  0  0  0  0
   41.9697   -0.4085   46.8284 C   0  0  0  0  0  0  0  0  0  0  0  0
   42.8716    0.7194   46.5063 N   0  0  0  0  0  0  0  0  0  0  0  0
   44.1579    0.2002   45.9722 C   0  0  0  0  0  0  0  0  0  0  0  0
   42.9608    1.9716   47.5580 S   0  0  0  0  0  0  0  0  0  0  0  0
   43.8272    2.9805   47.0388 O   0  0  0  0  0  0  0  0  0  0  0  0
   41.6240    2.3587   47.8657 O   0  0  0  0  0  0  0  0  0  0  0  0
   43.7097    1.3265   49.0758 C   0  0  0  0  0  0  0  0  0  0  0  0
   52.2886   -7.6834   32.0345 H   0  0  0  0  0  0  0  0  0  0  0  0
   53.2326   -7.0512   33.2103 H   0  0  0  0  0  0  0  0  0  0  0  0
   53.6007   -8.5014   32.5682 H   0  0  0  0  0  0  0  0  0  0  0  0
   52.4076   -8.4856   34.7890 H   0  0  0  0  0  0  0  0  0  0  0  0
   51.8922   -9.5526   33.6437 H   0  0  0  0  0  0  0  0  0  0  0  0
   51.9182   -6.5877   35.5174 H   0  0  0  0  0  0  0  0  0  0  0  0
   49.5827   -5.1581   35.7945 H   0  0  0  0  0  0  0  0  0  0  0  0
   51.0970   -5.7681   38.2000 H   0  0  0  0  0  0  0  0  0  0  0  0
   49.6442   -6.4167   37.8579 H   0  0  0  0  0  0  0  0  0  0  0  0
   49.3712   -4.5497   39.3407 H   0  0  0  0  0  0  0  0  0  0  0  0
   48.6552   -4.2345   37.8990 H   0  0  0  0  0  0  0  0  0  0  0  0
   51.1699   -3.3221   38.6160 H   0  0  0  0  0  0  0  0  0  0  0  0
   51.3221   -2.0947   36.6979 H   0  0  0  0  0  0  0  0  0  0  0  0
   49.8467   -2.6800   36.2716 H   0  0  0  0  0  0  0  0  0  0  0  0
   51.5130   -3.9167   35.1219 H   0  0  0  0  0  0  0  0  0  0  0  0
   52.2397   -4.2805   36.5409 H   0  0  0  0  0  0  0  0  0  0  0  0
   49.1499   -1.4953   38.2702 H   0  0  0  0  0  0  0  0  0  0  0  0
   50.5923   -1.3239   39.0865 H   0  0  0  0  0  0  0  0  0  0  0  0
   49.6885   -2.8137   40.7825 H   0  0  0  0  0  0  0  0  0  0  0  0
   48.2316   -2.6317   40.0636 H   0  0  0  0  0  0  0  0  0  0  0  0
   46.3301   -1.0803   42.2103 H   0  0  0  0  0  0  0  0  0  0  0  0
   46.9806   -2.0197   46.1640 H   0  0  0  0  0  0  0  0  0  0  0  0
   49.3015   -1.7284   45.8450 H   0  0  0  0  0  0  0  0  0  0  0  0
   42.2575   -4.0102   42.6955 H   0  0  0  0  0  0  0  0  0  0  0  0
   41.1932   -3.4448   43.8271 H   0  0  0  0  0  0  0  0  0  0  0  0
   42.5382   -4.8913   45.4001 H   0  0  0  0  0  0  0  0  0  0  0  0
   42.9164   -5.6934   44.0108 H   0  0  0  0  0  0  0  0  0  0  0  0
   40.3428   -5.4906   45.2568 H   0  0  0  0  0  0  0  0  0  0  0  0
   41.1304   -6.8466   44.7241 H   0  0  0  0  0  0  0  0  0  0  0  0
   40.7435   -5.6407   42.5898 H   0  0  0  0  0  0  0  0  0  0  0  0
   38.8809   -7.4748   43.4825 H   0  0  0  0  0  0  0  0  0  0  0  0
   40.3255   -7.8656   42.8211 H   0  0  0  0  0  0  0  0  0  0  0  0
   38.5642   -7.9920   41.1778 H   0  0  0  0  0  0  0  0  0  0  0  0
   39.6893   -6.8750   40.7635 H   0  0  0  0  0  0  0  0  0  0  0  0
   37.1516   -6.1920   42.0283 H   0  0  0  0  0  0  0  0  0  0  0  0
   37.7396   -3.9673   41.8115 H   0  0  0  0  0  0  0  0  0  0  0  0
   39.1773   -4.3809   41.1537 H   0  0  0  0  0  0  0  0  0  0  0  0
   39.4946   -3.9020   43.4670 H   0  0  0  0  0  0  0  0  0  0  0  0
   38.3591   -5.0181   43.8568 H   0  0  0  0  0  0  0  0  0  0  0  0
   38.5554   -5.0929   38.8302 H   0  0  0  0  0  0  0  0  0  0  0  0
   37.3228   -4.1655   39.1557 H   0  0  0  0  0  0  0  0  0  0  0  0
   37.4525   -6.3218   37.2516 H   0  0  0  0  0  0  0  0  0  0  0  0
   36.4623   -5.0549   37.1708 H   0  0  0  0  0  0  0  0  0  0  0  0
   35.5860   -7.4641   37.8755 H   0  0  0  0  0  0  0  0  0  0  0  0
   34.8076   -6.1643   38.3581 H   0  0  0  0  0  0  0  0  0  0  0  0
   41.1405   -2.0936   45.8808 H   0  0  0  0  0  0  0  0  0  0  0  0
   41.0961   -0.7470   44.9516 H   0  0  0  0  0  0  0  0  0  0  0  0
   42.4043   -0.9816   47.5231 H   0  0  0  0  0  0  0  0  0  0  0  0
   41.1088   -0.0223   47.1599 H   0  0  0  0  0  0  0  0  0  0  0  0
   44.5862    0.9298   45.4391 H   0  0  0  0  0  0  0  0  0  0  0  0
   44.6832   -0.0841   46.7742 H   0  0  0  0  0  0  0  0  0  0  0  0
   43.0381    1.3728   49.8153 H   0  0  0  0  0  0  0  0  0  0  0  0
   43.9921    0.3774   48.9362 H   0  0  0  0  0  0  0  0  0  0  0  0
   44.5124    1.8733   49.3139 H   0  0  0  0  0  0  0  0  0  0  0  0
  1  2  1  0  0  0  0
  1 54  1  0  0  0  0
  1 55  1  0  0  0  0
  1 56  1  0  0  0  0
  2  3  1  0  0  0  0
  2 57  1  0  0  0  0
  2 58  1  0  0  0  0
  3  4  1  0  0  0  0
  4  5  2  0  0  0  0
  4  6  1  0  0  0  0
  6  7  1  0  0  0  0
  6 59  1  0  0  0  0
  7  8  1  0  0  0  0
  7 12  1  0  0  0  0
  7 60  1  6  0  0  0
  8  9  1  0  0  0  0
  8 61  1  0  0  0  0
  8 62  1  0  0  0  0
  9 10  1  0  0  0  0
  9 63  1  0  0  0  0
  9 64  1  0  0  0  0
 10 11  1  0  0  0  0
 10 13  1  0  0  0  0
 10 65  1  1  0  0  0
 11 12  1  0  0  0  0
 11 66  1  0  0  0  0
 11 67  1  0  0  0  0
 12 68  1  0  0  0  0
 12 69  1  0  0  0  0
 13 14  1  0  0  0  0
 13 70  1  0  0  0  0
 13 71  1  0  0  0  0
 14 15  1  0  0  0  0
 14 72  1  0  0  0  0
 14 73  1  0  0  0  0
 15 16  1  0  0  0  0
 16 17  2  0  0  0  0
 16 21  1  0  0  0  0
 17 18  1  0  0  0  0
 17 74  1  0  0  0  0
 18 19  2  0  0  0  0
 18 26  1  0  0  0  0
 19 20  1  0  0  0  0
 19 75  1  0  0  0  0
 20 21  2  0  0  0  0
 20 76  1  0  0  0  0
 21 22  1  0  0  0  0
 22 23  1  0  0  0  0
 22 24  1  0  0  0  0
 22 25  1  0  0  0  0
 26 27  1  0  0  0  0
 26 30  2  0  0  0  0
 27 28  2  0  0  0  0
 27 49  1  0  0  0  0
 28 29  1  0  0  0  0
 28 46  1  0  0  0  0
 29 30  1  0  0  0  0
 29 31  1  0  0  0  0
 31 32  1  0  0  0  0
 31 77  1  0  0  0  0
 31 78  1  0  0  0  0
 32 33  1  0  0  0  0
 32 79  1  0  0  0  0
 32 80  1  0  0  0  0
 33 34  1  0  0  0  0
 33 81  1  0  0  0  0
 33 82  1  0  0  0  0
 34 35  1  0  0  0  0
 34 39  1  0  0  0  0
 34 83  1  6  0  0  0
 35 36  1  0  0  0  0
 35 84  1  0  0  0  0
 35 85  1  0  0  0  0
 36 37  1  0  0  0  0
 36 86  1  0  0  0  0
 36 87  1  0  0  0  0
 37 38  1  0  0  0  0
 37 40  1  0  0  0  0
 37 88  1  1  0  0  0
 38 39  1  0  0  0  0
 38 89  1  0  0  0  0
 38 90  1  0  0  0  0
 39 91  1  0  0  0  0
 39 92  1  0  0  0  0
 40 41  1  0  0  0  0
 40 44  1  0  0  0  0
 41 42  1  0  0  0  0
 41 93  1  0  0  0  0
 41 94  1  0  0  0  0
 42 43  1  0  0  0  0
 42 95  1  0  0  0  0
 42 96  1  0  0  0  0
 43 44  1  0  0  0  0
 43 97  1  0  0  0  0
 43 98  1  0  0  0  0
 44 45  2  0  0  0  0
 46 47  1  0  0  0  0
 46 99  1  0  0  0  0
 46100  1  0  0  0  0
 47 48  1  0  0  0  0
 47101  1  0  0  0  0
 47102  1  0  0  0  0
 48 49  1  0  0  0  0
 48 50  1  0  0  0  0
 49103  1  0  0  0  0
 49104  1  0  0  0  0
 50 51  2  0  0  0  0
 50 52  2  0  0  0  0
 50 53  1  0  0  0  0
 53105  1  0  0  0  0
 53106  1  0  0  0  0
 53107  1  0  0  0  0
M  CHG  2  10   1  34   1
M  END
