CatS_35:1_D
 OpenBabel12041818463D

 92 97  0  0  0  0  0  0  0  0999 V2000
   43.9498   -8.8862   46.7770 C   0  0  0  0  0  0  0  0  0  0  0  0
   42.4346   -8.3396   47.6121 S   0  0  0  0  0  0  0  0  0  0  0  0
   42.7934   -7.4076   48.6300 O   0  0  0  0  0  0  0  0  0  0  0  0
   41.7116   -9.5004   48.0159 O   0  0  0  0  0  0  0  0  0  0  0  0
   41.4868   -7.5538   46.5469 N   0  0  0  0  0  0  0  0  0  0  0  0
   40.9268   -8.3187   45.4110 C   0  0  0  0  0  0  0  0  0  0  0  0
   39.7963   -7.5450   44.6933 C   0  0  0  0  0  0  0  0  0  0  0  0
   40.2569   -6.1422   44.3504 C   0  0  0  0  0  0  0  0  0  0  0  0
   41.2999   -5.5795   44.9609 C   0  0  0  0  0  0  0  0  0  0  0  0
   41.4132   -4.3173   44.3316 C   0  0  0  0  0  0  0  0  0  0  0  0
   40.4507   -4.2126   43.4391 N   0  0  0  0  0  0  0  0  0  0  0  0
   39.6978   -5.3368   43.4147 N   0  0  0  0  0  0  0  0  0  0  0  0
   38.6105   -5.6070   42.4659 C   0  0  0  0  0  0  0  0  0  0  0  0
   39.0797   -5.8235   41.0163 C   0  0  0  0  0  0  0  0  0  0  0  0
   38.0822   -5.2661   39.9763 C   0  0  0  0  0  0  0  0  0  0  0  0
   36.6717   -5.7911   40.1076 N   0  3  0  0  0  0  0  0  0  0  0  0
   36.6110   -7.2948   40.2132 C   0  0  0  0  0  0  0  0  0  0  0  0
   36.8721   -7.9296   38.8339 C   0  0  0  0  0  0  0  0  0  0  0  0
   35.9354   -7.4230   37.8651 O   0  0  0  0  0  0  0  0  0  0  0  0
   36.0428   -5.9968   37.6942 C   0  0  0  0  0  0  0  0  0  0  0  0
   35.7639   -5.2659   39.0227 C   0  0  0  0  0  0  0  0  0  0  0  0
   42.4106   -3.2824   44.5453 C   0  0  0  0  0  0  0  0  0  0  0  0
   42.1253   -2.2252   45.3928 C   0  0  0  0  0  0  0  0  0  0  0  0
   43.0421   -1.2205   45.5900 C   0  0  0  0  0  0  0  0  0  0  0  0
   44.2579   -1.2570   44.9423 C   0  0  0  0  0  0  0  0  0  0  0  0
   44.5613   -2.3074   44.1015 C   0  0  0  0  0  0  0  0  0  0  0  0
   43.6416   -3.3121   43.9103 C   0  0  0  0  0  0  0  0  0  0  0  0
   45.8907   -2.3507   43.3664 C   0  0  0  0  0  0  0  0  0  0  0  0
   46.0654   -1.3138   42.2308 C   0  0  0  0  0  0  0  0  0  0  0  0
   46.9261   -1.8240   41.0869 C   0  0  0  0  0  0  0  0  0  0  0  0
   48.2066   -2.2685   41.3295 C   0  0  0  0  0  0  0  0  0  0  0  0
   48.9752   -2.7615   40.3004 C   0  0  0  0  0  0  0  0  0  0  0  0
   48.4786   -2.8156   39.0170 C   0  0  0  0  0  0  0  0  0  0  0  0
   47.2031   -2.3502   38.7737 C   0  0  0  0  0  0  0  0  0  0  0  0
   46.4311   -1.8600   39.8029 C   0  0  0  0  0  0  0  0  0  0  0  0
   49.3907   -3.4112   37.9506 C   0  0  0  0  0  0  0  0  0  0  0  0
   50.2177   -2.4183   37.1714 N   0  3  0  0  0  0  0  0  0  0  0  0
   51.6501   -2.2652   37.6198 C   0  0  0  0  0  0  0  0  0  0  0  0
   52.5358   -1.4816   36.6615 C   0  0  0  0  0  0  0  0  0  0  0  0
   52.9147   -2.0272   35.4538 C   0  0  0  0  0  0  0  0  0  0  0  0
   53.6965   -1.3068   34.5805 C   0  0  0  0  0  0  0  0  0  0  0  0
   54.1022   -0.0332   34.9108 C   0  0  0  0  0  0  0  0  0  0  0  0
   53.7301    0.5140   36.1186 C   0  0  0  0  0  0  0  0  0  0  0  0
   52.9500   -0.2099   36.9912 C   0  0  0  0  0  0  0  0  0  0  0  0
   55.0804    0.8831   33.8031 Cl  0  0  0  0  0  0  0  0  0  0  0  0
   45.4068    0.0267   45.1783 Cl  0  0  0  0  0  0  0  0  0  0  0  0
   42.0973   -6.3000   46.0404 C   0  0  0  0  0  0  0  0  0  0  0  0
   43.9150   -8.6005   45.8193 H   0  0  0  0  0  0  0  0  0  0  0  0
   44.7469   -8.4776   47.2216 H   0  0  0  0  0  0  0  0  0  0  0  0
   44.0228   -9.8822   46.8298 H   0  0  0  0  0  0  0  0  0  0  0  0
   40.5625   -9.1854   45.7518 H   0  0  0  0  0  0  0  0  0  0  0  0
   41.6616   -8.4731   44.7505 H   0  0  0  0  0  0  0  0  0  0  0  0
   38.9966   -7.4957   45.2916 H   0  0  0  0  0  0  0  0  0  0  0  0
   39.5588   -8.0244   43.8485 H   0  0  0  0  0  0  0  0  0  0  0  0
   37.9787   -4.8322   42.4816 H   0  0  0  0  0  0  0  0  0  0  0  0
   38.1793   -6.4607   42.7581 H   0  0  0  0  0  0  0  0  0  0  0  0
   39.1948   -6.8043   40.8591 H   0  0  0  0  0  0  0  0  0  0  0  0
   39.9412   -5.3290   40.9013 H   0  0  0  0  0  0  0  0  0  0  0  0
   38.4195   -5.4982   39.0640 H   0  0  0  0  0  0  0  0  0  0  0  0
   38.0304   -4.2803   40.1359 H   0  0  0  0  0  0  0  0  0  0  0  0
   36.3434   -5.4628   40.8920 H   0  0  0  0  0  0  0  0  0  0  0  0
   35.7072   -7.5692   40.5414 H   0  0  0  0  0  0  0  0  0  0  0  0
   37.3107   -7.6076   40.8554 H   0  0  0  0  0  0  0  0  0  0  0  0
   36.7750   -8.9225   38.9024 H   0  0  0  0  0  0  0  0  0  0  0  0
   37.7994   -7.6981   38.5398 H   0  0  0  0  0  0  0  0  0  0  0  0
   35.3822   -5.6964   37.0063 H   0  0  0  0  0  0  0  0  0  0  0  0
   36.9725   -5.7780   37.3975 H   0  0  0  0  0  0  0  0  0  0  0  0
   35.9224   -4.2859   38.9031 H   0  0  0  0  0  0  0  0  0  0  0  0
   34.8130   -5.4256   39.2879 H   0  0  0  0  0  0  0  0  0  0  0  0
   41.2446   -2.1925   45.8655 H   0  0  0  0  0  0  0  0  0  0  0  0
   42.8266   -0.4616   46.2046 H   0  0  0  0  0  0  0  0  0  0  0  0
   43.8648   -4.0754   43.3040 H   0  0  0  0  0  0  0  0  0  0  0  0
   45.9947   -3.2632   42.9708 H   0  0  0  0  0  0  0  0  0  0  0  0
   46.5860   -2.1245   44.0486 H   0  0  0  0  0  0  0  0  0  0  0  0
   46.4903   -0.4921   42.6105 H   0  0  0  0  0  0  0  0  0  0  0  0
   45.1572   -1.1236   41.8579 H   0  0  0  0  0  0  0  0  0  0  0  0
   48.5793   -2.2327   42.2569 H   0  0  0  0  0  0  0  0  0  0  0  0
   49.9036   -3.0837   40.4860 H   0  0  0  0  0  0  0  0  0  0  0  0
   46.8367   -2.3689   37.8435 H   0  0  0  0  0  0  0  0  0  0  0  0
   45.5062   -1.5286   39.6167 H   0  0  0  0  0  0  0  0  0  0  0  0
   48.8200   -3.9157   37.3027 H   0  0  0  0  0  0  0  0  0  0  0  0
   50.0459   -3.9857   38.4412 H   0  0  0  0  0  0  0  0  0  0  0  0
   49.8027   -1.6075   37.1532 H   0  0  0  0  0  0  0  0  0  0  0  0
   50.2368   -2.6773   36.2984 H   0  0  0  0  0  0  0  0  0  0  0  0
   52.0416   -3.1783   37.7337 H   0  0  0  0  0  0  0  0  0  0  0  0
   51.6251   -1.7416   38.4714 H   0  0  0  0  0  0  0  0  0  0  0  0
   52.6198   -2.9514   35.2111 H   0  0  0  0  0  0  0  0  0  0  0  0
   53.9701   -1.7079   33.7063 H   0  0  0  0  0  0  0  0  0  0  0  0
   54.0269    1.4375   36.3616 H   0  0  0  0  0  0  0  0  0  0  0  0
   52.6828    0.1889   37.8684 H   0  0  0  0  0  0  0  0  0  0  0  0
   42.9979   -6.5220   45.6667 H   0  0  0  0  0  0  0  0  0  0  0  0
   42.1333   -5.6749   46.8201 H   0  0  0  0  0  0  0  0  0  0  0  0
  1  2  1  0  0  0  0
  1 48  1  0  0  0  0
  1 49  1  0  0  0  0
  1 50  1  0  0  0  0
  2  3  2  0  0  0  0
  2  4  2  0  0  0  0
  2  5  1  0  0  0  0
  5  6  1  0  0  0  0
  5 47  1  0  0  0  0
  6  7  1  0  0  0  0
  6 51  1  0  0  0  0
  6 52  1  0  0  0  0
  7  8  1  0  0  0  0
  7 53  1  0  0  0  0
  7 54  1  0  0  0  0
  8  9  2  0  0  0  0
  8 12  1  0  0  0  0
  9 10  1  0  0  0  0
  9 47  1  0  0  0  0
 10 11  2  0  0  0  0
 10 22  1  0  0  0  0
 11 12  1  0  0  0  0
 12 13  1  0  0  0  0
 13 14  1  0  0  0  0
 13 55  1  0  0  0  0
 13 56  1  0  0  0  0
 14 15  1  0  0  0  0
 14 57  1  0  0  0  0
 14 58  1  0  0  0  0
 15 16  1  0  0  0  0
 15 59  1  0  0  0  0
 15 60  1  0  0  0  0
 16 17  1  0  0  0  0
 16 21  1  0  0  0  0
 16 61  1  0  0  0  0
 17 18  1  0  0  0  0
 17 62  1  0  0  0  0
 17 63  1  0  0  0  0
 18 19  1  0  0  0  0
 18 64  1  0  0  0  0
 18 65  1  0  0  0  0
 19 20  1  0  0  0  0
 20 21  1  0  0  0  0
 20 66  1  0  0  0  0
 20 67  1  0  0  0  0
 21 68  1  0  0  0  0
 21 69  1  0  0  0  0
 22 23  2  0  0  0  0
 22 27  1  0  0  0  0
 23 24  1  0  0  0  0
 23 70  1  0  0  0  0
 24 25  2  0  0  0  0
 24 71  1  0  0  0  0
 25 26  1  0  0  0  0
 25 46  1  0  0  0  0
 26 27  2  0  0  0  0
 26 28  1  0  0  0  0
 27 72  1  0  0  0  0
 28 29  1  0  0  0  0
 28 73  1  0  0  0  0
 28 74  1  0  0  0  0
 29 30  1  0  0  0  0
 29 75  1  0  0  0  0
 29 76  1  0  0  0  0
 30 31  2  0  0  0  0
 30 35  1  0  0  0  0
 31 32  1  0  0  0  0
 31 77  1  0  0  0  0
 32 33  2  0  0  0  0
 32 78  1  0  0  0  0
 33 34  1  0  0  0  0
 33 36  1  0  0  0  0
 34 35  2  0  0  0  0
 34 79  1  0  0  0  0
 35 80  1  0  0  0  0
 36 37  1  0  0  0  0
 36 81  1  0  0  0  0
 36 82  1  0  0  0  0
 37 38  1  0  0  0  0
 37 83  1  0  0  0  0
 37 84  1  0  0  0  0
 38 39  1  0  0  0  0
 38 85  1  0  0  0  0
 38 86  1  0  0  0  0
 39 40  2  0  0  0  0
 39 44  1  0  0  0  0
 40 41  1  0  0  0  0
 40 87  1  0  0  0  0
 41 42  2  0  0  0  0
 41 88  1  0  0  0  0
 42 43  1  0  0  0  0
 42 45  1  0  0  0  0
 43 44  2  0  0  0  0
 43 89  1  0  0  0  0
 44 90  1  0  0  0  0
 47 91  1  0  0  0  0
 47 92  1  0  0  0  0
M  CHG  2  16   1  37   1
M  END
