CatS_51:1_D
 OpenBabel12041818463D

109115  0  0  0  0  0  0  0  0999 V2000
   43.7454    2.4297   49.1056 C   0  0  0  0  0  0  0  0  0  0  0  0
   42.8960    2.4487   47.5021 S   0  0  0  0  0  0  0  0  0  0  0  0
   41.5023    2.6542   47.7376 O   0  0  0  0  0  0  0  0  0  0  0  0
   43.5822    3.3550   46.6399 O   0  0  0  0  0  0  0  0  0  0  0  0
   43.0344    0.9691   46.8494 N   0  0  0  0  0  0  0  0  0  0  0  0
   42.3632   -0.1171   47.5940 C   0  0  0  0  0  0  0  0  0  0  0  0
   42.0836   -1.3396   46.6996 C   0  0  0  0  0  0  0  0  0  0  0  0
   43.3391   -1.7199   45.9401 C   0  0  0  0  0  0  0  0  0  0  0  0
   44.3744   -0.8899   45.8033 C   0  0  0  0  0  0  0  0  0  0  0  0
   45.3111   -1.6533   45.0655 C   0  0  0  0  0  0  0  0  0  0  0  0
   44.7775   -2.8290   44.8018 N   0  0  0  0  0  0  0  0  0  0  0  0
   43.5391   -2.9168   45.3402 N   0  0  0  0  0  0  0  0  0  0  0  0
   42.7011   -4.1231   45.3830 C   0  0  0  0  0  0  0  0  0  0  0  0
   41.3269   -4.1626   44.6950 C   0  0  0  0  0  0  0  0  0  0  0  0
   40.7655   -5.6054   44.6556 C   0  0  0  0  0  0  0  0  0  0  0  0
   39.7815   -5.8579   43.5343 N   0  3  1  0  0  0  0  0  0  0  0  0
   39.2125   -4.5958   42.9338 C   0  0  0  0  0  0  0  0  0  0  0  0
   38.1034   -4.9274   41.9086 C   0  0  0  0  0  0  0  0  0  0  0  0
   38.6229   -5.8851   40.8115 C   0  0  1  0  0  0  0  0  0  0  0  0
   39.2000   -7.1511   41.4800 C   0  0  0  0  0  0  0  0  0  0  0  0
   40.3260   -6.7657   42.4580 C   0  0  0  0  0  0  0  0  0  0  0  0
   37.6052   -6.1002   39.7618 N   0  0  0  0  0  0  0  0  0  0  0  0
   36.9002   -7.3807   39.6340 C   0  0  0  0  0  0  0  0  0  0  0  0
   35.7019   -6.9458   38.7718 C   0  0  0  0  0  0  0  0  0  0  0  0
   36.1730   -5.7114   37.9871 C   0  0  0  0  0  0  0  0  0  0  0  0
   37.2538   -5.1563   38.8748 C   0  0  0  0  0  0  0  0  0  0  0  0
   37.6992   -4.0212   38.7802 O   0  0  0  0  0  0  0  0  0  0  0  0
   46.6517   -1.2890   44.6409 C   0  0  0  0  0  0  0  0  0  0  0  0
   47.7235   -1.3662   45.5138 C   0  0  0  0  0  0  0  0  0  0  0  0
   48.9919   -1.0505   45.0842 C   0  0  0  0  0  0  0  0  0  0  0  0
   49.2373   -0.6400   43.7883 C   0  0  0  0  0  0  0  0  0  0  0  0
   48.1575   -0.5572   42.9182 C   0  0  0  0  0  0  0  0  0  0  0  0
   46.8873   -0.8801   43.3435 C   0  0  0  0  0  0  0  0  0  0  0  0
   48.3736   -0.0408   41.2058 S   0  0  0  0  0  0  0  0  0  0  0  0
   46.7694   -0.0221   40.3586 C   0  0  0  0  0  0  0  0  0  0  0  0
   46.4176   -1.4369   39.8632 C   0  0  0  0  0  0  0  0  0  0  0  0
   47.6335   -2.2786   39.5729 N   0  3  2  0  0  0  0  0  0  0  0  0
   48.3008   -1.9523   38.2584 C   0  0  0  0  0  0  0  0  0  0  0  0
   49.5882   -2.7813   38.0766 C   0  0  0  0  0  0  0  0  0  0  0  0
   49.2806   -4.2898   38.1719 C   0  0  2  0  0  0  0  0  0  0  0  0
   48.6069   -4.5924   39.5289 C   0  0  0  0  0  0  0  0  0  0  0  0
   47.3275   -3.7493   39.7005 C   0  0  0  0  0  0  0  0  0  0  0  0
   50.5929   -5.0911   38.0280 C   0  0  0  0  0  0  0  0  0  0  0  0
   50.7731   -5.8101   36.6999 C   0  0  0  0  0  0  0  0  0  0  0  0
   51.6095   -5.2934   35.7345 C   0  0  0  0  0  0  0  0  0  0  0  0
   51.7632   -5.9422   34.5308 C   0  0  0  0  0  0  0  0  0  0  0  0
   51.0796   -7.1112   34.2873 C   0  0  0  0  0  0  0  0  0  0  0  0
   50.2440   -7.6315   35.2487 C   0  0  0  0  0  0  0  0  0  0  0  0
   50.0921   -6.9820   36.4524 C   0  0  0  0  0  0  0  0  0  0  0  0
   50.6904   -0.3180   43.4266 C   0  0  0  0  0  0  0  0  0  0  0  0
   51.1577   -1.1601   42.4230 F   0  0  0  0  0  0  0  0  0  0  0  0
   51.5727   -0.4520   44.4961 F   0  0  0  0  0  0  0  0  0  0  0  0
   50.8250    0.9867   42.9614 F   0  0  0  0  0  0  0  0  0  0  0  0
   44.3750    0.5120   46.4022 C   0  0  0  0  0  0  0  0  0  0  0  0
   44.1246    1.5178   49.2624 H   0  0  0  0  0  0  0  0  0  0  0  0
   44.4824    3.1055   49.1056 H   0  0  0  0  0  0  0  0  0  0  0  0
   43.0970    2.6554   49.8327 H   0  0  0  0  0  0  0  0  0  0  0  0
   41.4969    0.2255   47.9575 H   0  0  0  0  0  0  0  0  0  0  0  0
   42.9714   -0.4079   48.3326 H   0  0  0  0  0  0  0  0  0  0  0  0
   41.3549   -1.1186   46.0513 H   0  0  0  0  0  0  0  0  0  0  0  0
   41.8004   -2.1090   47.2721 H   0  0  0  0  0  0  0  0  0  0  0  0
   42.5428   -4.3255   46.3494 H   0  0  0  0  0  0  0  0  0  0  0  0
   43.2321   -4.7763   44.8433 H   0  0  0  0  0  0  0  0  0  0  0  0
   41.4178   -3.8189   43.7603 H   0  0  0  0  0  0  0  0  0  0  0  0
   40.6938   -3.5905   45.2165 H   0  0  0  0  0  0  0  0  0  0  0  0
   40.3074   -5.7890   45.5253 H   0  0  0  0  0  0  0  0  0  0  0  0
   41.5441   -6.2120   44.4947 H   0  0  0  0  0  0  0  0  0  0  0  0
   39.0712   -6.2839   43.9124 H   0  0  0  0  0  0  0  0  0  0  0  0
   39.9440   -4.0896   42.4771 H   0  0  0  0  0  0  0  0  0  0  0  0
   38.8153   -4.0431   43.6665 H   0  0  0  0  0  0  0  0  0  0  0  0
   37.7877   -4.0797   41.4822 H   0  0  0  0  0  0  0  0  0  0  0  0
   37.3520   -5.3783   42.3905 H   0  0  0  0  0  0  0  0  0  0  0  0
   39.3844   -5.4799   40.3057 H   0  0  0  0  0  0  0  0  0  0  0  0
   39.5637   -7.7620   40.7768 H   0  0  0  0  0  0  0  0  0  0  0  0
   38.4727   -7.6148   41.9860 H   0  0  0  0  0  0  0  0  0  0  0  0
   40.7019   -7.5920   42.8776 H   0  0  0  0  0  0  0  0  0  0  0  0
   41.0471   -6.2874   41.9569 H   0  0  0  0  0  0  0  0  0  0  0  0
   36.6110   -7.7368   40.5226 H   0  0  0  0  0  0  0  0  0  0  0  0
   37.4464   -8.1240   39.2477 H   0  0  0  0  0  0  0  0  0  0  0  0
   34.9200   -6.7155   39.3511 H   0  0  0  0  0  0  0  0  0  0  0  0
   35.4063   -7.6783   38.1585 H   0  0  0  0  0  0  0  0  0  0  0  0
   35.4295   -5.0540   37.8636 H   0  0  0  0  0  0  0  0  0  0  0  0
   36.4870   -5.9226   37.0615 H   0  0  0  0  0  0  0  0  0  0  0  0
   47.5753   -1.6526   46.4604 H   0  0  0  0  0  0  0  0  0  0  0  0
   49.7554   -1.1200   45.7263 H   0  0  0  0  0  0  0  0  0  0  0  0
   46.1232   -0.8172   42.7015 H   0  0  0  0  0  0  0  0  0  0  0  0
   46.8123    0.6031   39.5794 H   0  0  0  0  0  0  0  0  0  0  0  0
   46.0646    0.2845   40.9984 H   0  0  0  0  0  0  0  0  0  0  0  0
   45.8750   -1.3573   39.0270 H   0  0  0  0  0  0  0  0  0  0  0  0
   45.9084   -1.8913   40.5940 H   0  0  0  0  0  0  0  0  0  0  0  0
   48.2398   -2.0822   40.2257 H   0  0  0  0  0  0  0  0  0  0  0  0
   48.5291   -0.9789   38.2378 H   0  0  0  0  0  0  0  0  0  0  0  0
   47.6702   -2.1753   37.5151 H   0  0  0  0  0  0  0  0  0  0  0  0
   50.2449   -2.5316   38.7882 H   0  0  0  0  0  0  0  0  0  0  0  0
   49.9710   -2.5881   37.1732 H   0  0  0  0  0  0  0  0  0  0  0  0
   48.6575   -4.5572   37.4369 H   0  0  0  0  0  0  0  0  0  0  0  0
   49.2451   -4.3799   40.2688 H   0  0  0  0  0  0  0  0  0  0  0  0
   48.3590   -5.5608   39.5563 H   0  0  0  0  0  0  0  0  0  0  0  0
   46.6639   -4.0095   38.9992 H   0  0  0  0  0  0  0  0  0  0  0  0
   46.9526   -3.9203   40.6117 H   0  0  0  0  0  0  0  0  0  0  0  0
   50.6212   -5.7739   38.7580 H   0  0  0  0  0  0  0  0  0  0  0  0
   51.3331   -4.4208   38.0804 H   0  0  0  0  0  0  0  0  0  0  0  0
   52.1067   -4.4436   35.9092 H   0  0  0  0  0  0  0  0  0  0  0  0
   52.3717   -5.5642   33.8330 H   0  0  0  0  0  0  0  0  0  0  0  0
   51.1900   -7.5825   33.4123 H   0  0  0  0  0  0  0  0  0  0  0  0
   49.7471   -8.4813   35.0728 H   0  0  0  0  0  0  0  0  0  0  0  0
   49.4850   -7.3621   37.1502 H   0  0  0  0  0  0  0  0  0  0  0  0
   44.9924    0.5221   47.1888 H   0  0  0  0  0  0  0  0  0  0  0  0
   44.6716    1.1373   45.6803 H   0  0  0  0  0  0  0  0  0  0  0  0
  1  2  1  0  0  0  0
  1 55  1  0  0  0  0
  1 56  1  0  0  0  0
  1 57  1  0  0  0  0
  2  3  2  0  0  0  0
  2  4  2  0  0  0  0
  2  5  1  0  0  0  0
  5  6  1  0  0  0  0
  5 54  1  0  0  0  0
  6  7  1  0  0  0  0
  6 58  1  0  0  0  0
  6 59  1  0  0  0  0
  7  8  1  0  0  0  0
  7 60  1  0  0  0  0
  7 61  1  0  0  0  0
  8  9  2  0  0  0  0
  8 12  1  0  0  0  0
  9 10  1  0  0  0  0
  9 54  1  0  0  0  0
 10 11  2  0  0  0  0
 10 28  1  0  0  0  0
 11 12  1  0  0  0  0
 12 13  1  0  0  0  0
 13 14  1  0  0  0  0
 13 62  1  0  0  0  0
 13 63  1  0  0  0  0
 14 15  1  0  0  0  0
 14 64  1  0  0  0  0
 14 65  1  0  0  0  0
 15 16  1  0  0  0  0
 15 66  1  0  0  0  0
 15 67  1  0  0  0  0
 16 17  1  0  0  0  0
 16 21  1  0  0  0  0
 16 68  1  1  0  0  0
 17 18  1  0  0  0  0
 17 69  1  0  0  0  0
 17 70  1  0  0  0  0
 18 19  1  0  0  0  0
 18 71  1  0  0  0  0
 18 72  1  0  0  0  0
 19 20  1  0  0  0  0
 19 22  1  0  0  0  0
 19 73  1  6  0  0  0
 20 21  1  0  0  0  0
 20 74  1  0  0  0  0
 20 75  1  0  0  0  0
 21 76  1  0  0  0  0
 21 77  1  0  0  0  0
 22 23  1  0  0  0  0
 22 26  1  0  0  0  0
 23 24  1  0  0  0  0
 23 78  1  0  0  0  0
 23 79  1  0  0  0  0
 24 25  1  0  0  0  0
 24 80  1  0  0  0  0
 24 81  1  0  0  0  0
 25 26  1  0  0  0  0
 25 82  1  0  0  0  0
 25 83  1  0  0  0  0
 26 27  2  0  0  0  0
 28 29  2  0  0  0  0
 28 33  1  0  0  0  0
 29 30  1  0  0  0  0
 29 84  1  0  0  0  0
 30 31  2  0  0  0  0
 30 85  1  0  0  0  0
 31 32  1  0  0  0  0
 31 50  1  0  0  0  0
 32 33  2  0  0  0  0
 32 34  1  0  0  0  0
 33 86  1  0  0  0  0
 34 35  1  0  0  0  0
 35 36  1  0  0  0  0
 35 87  1  0  0  0  0
 35 88  1  0  0  0  0
 36 37  1  0  0  0  0
 36 89  1  0  0  0  0
 36 90  1  0  0  0  0
 37 38  1  0  0  0  0
 37 42  1  0  0  0  0
 37 91  1  1  0  0  0
 38 39  1  0  0  0  0
 38 92  1  0  0  0  0
 38 93  1  0  0  0  0
 39 40  1  0  0  0  0
 39 94  1  0  0  0  0
 39 95  1  0  0  0  0
 40 41  1  0  0  0  0
 40 43  1  0  0  0  0
 40 96  1  6  0  0  0
 41 42  1  0  0  0  0
 41 97  1  0  0  0  0
 41 98  1  0  0  0  0
 42 99  1  0  0  0  0
 42100  1  0  0  0  0
 43 44  1  0  0  0  0
 43101  1  0  0  0  0
 43102  1  0  0  0  0
 44 45  2  0  0  0  0
 44 49  1  0  0  0  0
 45 46  1  0  0  0  0
 45103  1  0  0  0  0
 46 47  2  0  0  0  0
 46104  1  0  0  0  0
 47 48  1  0  0  0  0
 47105  1  0  0  0  0
 48 49  2  0  0  0  0
 48106  1  0  0  0  0
 49107  1  0  0  0  0
 50 51  1  0  0  0  0
 50 52  1  0  0  0  0
 50 53  1  0  0  0  0
 54108  1  0  0  0  0
 54109  1  0  0  0  0
M  CHG  2  16   1  37   1
M  END
