CatS_157:1_D
 OpenBabel12041818463D

 94 98  0  0  1  0  0  0  0  0999 V2000
   41.7303    1.3560   49.1908 C   0  0  0  0  0  0  0  0  0  0  0  0
   43.0593    1.0964   47.9876 S   0  0  0  0  0  0  0  0  0  0  0  0
   42.9241    2.0742   46.9550 O   0  0  0  0  0  0  0  0  0  0  0  0
   44.2936    1.0004   48.6974 O   0  0  0  0  0  0  0  0  0  0  0  0
   42.8305   -0.3450   47.2782 N   0  0  0  0  0  0  0  0  0  0  0  0
   41.6638   -0.4860   46.3862 C   0  0  0  0  0  0  0  0  0  0  0  0
   41.9096   -1.6005   45.3454 C   0  0  0  0  0  0  0  0  0  0  0  0
   42.4918   -2.8590   45.9679 C   0  0  0  0  0  0  0  0  0  0  0  0
   42.9523   -2.8388   47.2223 C   0  0  0  0  0  0  0  0  0  0  0  0
   43.3379   -4.1774   47.4571 C   0  0  0  0  0  0  0  0  0  0  0  0
   43.1257   -4.8652   46.3549 N   0  0  0  0  0  0  0  0  0  0  0  0
   42.6048   -4.0835   45.3772 N   0  0  0  0  0  0  0  0  0  0  0  0
   42.2813   -4.5895   44.0272 C   0  0  0  0  0  0  0  0  0  0  0  0
   41.3852   -5.7911   43.6554 C   0  0  2  0  0  0  0  0  0  0  0  0
   39.8900   -5.4984   43.9421 C   0  0  0  0  0  0  0  0  0  0  0  0
   38.9480   -5.5117   42.7544 N   0  3  2  0  0  0  0  0  0  0  0  0
   39.3438   -6.4523   41.6325 C   0  0  0  0  0  0  0  0  0  0  0  0
   38.7224   -6.0456   40.2812 C   0  0  0  0  0  0  0  0  0  0  0  0
   37.2871   -5.5479   40.5139 C   0  0  1  0  0  0  0  0  0  0  0  0
   37.3194   -4.2175   41.3058 C   0  0  0  0  0  0  0  0  0  0  0  0
   38.5242   -4.1409   42.2822 C   0  0  0  0  0  0  0  0  0  0  0  0
   36.5999   -5.4877   39.2171 N   0  0  0  0  0  0  0  0  0  0  0  0
   36.3961   -6.6220   38.5278 C   0  0  0  0  0  0  0  0  0  0  0  0
   36.7298   -7.7399   38.8958 O   0  0  0  0  0  0  0  0  0  0  0  0
   35.7040   -6.3775   37.2097 C   0  0  0  0  0  0  0  0  0  0  0  0
   35.3285   -7.6406   36.6404 O   0  0  0  0  0  0  0  0  0  0  0  0
   41.8855   -6.9894   44.2616 O   0  0  0  0  0  0  0  0  0  0  0  0
   43.8448   -4.7751   48.6799 C   0  0  0  0  0  0  0  0  0  0  0  0
   44.9076   -4.1835   49.3378 C   0  0  0  0  0  0  0  0  0  0  0  0
   45.3918   -4.7155   50.5088 C   0  0  0  0  0  0  0  0  0  0  0  0
   44.8418   -5.8543   51.0627 C   0  0  0  0  0  0  0  0  0  0  0  0
   43.7666   -6.4387   50.4040 C   0  0  0  0  0  0  0  0  0  0  0  0
   43.2723   -5.9065   49.2329 C   0  0  0  0  0  0  0  0  0  0  0  0
   42.9490   -7.9037   51.0528 S   0  0  0  0  0  0  0  0  0  0  0  0
   41.2301   -7.4828   51.4599 C   0  0  0  0  0  0  0  0  0  0  0  0
   41.1706   -6.6046   52.7292 C   0  0  0  0  0  0  0  0  0  0  0  0
   40.3588   -5.3387   52.5705 N   0  3  1  0  0  0  0  0  0  0  0  0
   40.0616   -4.6510   53.8880 C   0  0  0  0  0  0  0  0  0  0  0  0
   39.8306   -3.1383   53.7076 C   0  0  0  0  0  0  0  0  0  0  0  0
   41.0966   -2.4561   53.1432 C   0  0  0  0  0  0  0  0  0  0  0  0
   41.8390   -3.3268   52.0992 C   0  0  0  0  0  0  0  0  0  0  0  0
   40.9142   -4.4111   51.5073 C   0  0  0  0  0  0  0  0  0  0  0  0
   42.3184   -2.5211   51.0717 F   0  0  0  0  0  0  0  0  0  0  0  0
   42.9503   -3.9291   52.6826 F   0  0  0  0  0  0  0  0  0  0  0  0
   45.4785   -6.3675   52.3565 C   0  0  0  0  0  0  0  0  0  0  0  0
   46.5816   -5.6254   52.7756 F   0  0  0  0  0  0  0  0  0  0  0  0
   45.9213   -7.6763   52.1971 F   0  0  0  0  0  0  0  0  0  0  0  0
   44.5741   -6.3637   53.4134 F   0  0  0  0  0  0  0  0  0  0  0  0
   42.9775   -1.5790   48.0844 C   0  0  0  0  0  0  0  0  0  0  0  0
   41.4261   -5.9431   42.6678 H   0  0  0  0  0  0  0  0  0  0  0  0
   41.1214    0.5628   49.1795 H   0  0  0  0  0  0  0  0  0  0  0  0
   42.1195    1.4688   50.1050 H   0  0  0  0  0  0  0  0  0  0  0  0
   41.2162    2.1799   48.9521 H   0  0  0  0  0  0  0  0  0  0  0  0
   41.5030    0.3801   45.9129 H   0  0  0  0  0  0  0  0  0  0  0  0
   40.8645   -0.7293   46.9357 H   0  0  0  0  0  0  0  0  0  0  0  0
   42.5442   -1.2594   44.6518 H   0  0  0  0  0  0  0  0  0  0  0  0
   41.0260   -1.8419   44.9439 H   0  0  0  0  0  0  0  0  0  0  0  0
   43.1682   -4.7935   43.6124 H   0  0  0  0  0  0  0  0  0  0  0  0
   41.6755   -3.8518   43.7294 H   0  0  0  0  0  0  0  0  0  0  0  0
   39.8337   -4.5941   44.3653 H   0  0  0  0  0  0  0  0  0  0  0  0
   39.5842   -6.2522   44.5238 H   0  0  0  0  0  0  0  0  0  0  0  0
   38.1736   -5.8667   43.0815 H   0  0  0  0  0  0  0  0  0  0  0  0
   39.0401   -7.3766   41.8638 H   0  0  0  0  0  0  0  0  0  0  0  0
   40.3382   -6.4108   41.5353 H   0  0  0  0  0  0  0  0  0  0  0  0
   38.7101   -6.8341   39.6664 H   0  0  0  0  0  0  0  0  0  0  0  0
   39.2667   -5.3158   39.8675 H   0  0  0  0  0  0  0  0  0  0  0  0
   36.7567   -6.1757   41.0836 H   0  0  0  0  0  0  0  0  0  0  0  0
   36.4719   -4.1331   41.8297 H   0  0  0  0  0  0  0  0  0  0  0  0
   37.4143   -3.4719   40.6463 H   0  0  0  0  0  0  0  0  0  0  0  0
   39.2943   -3.7042   41.8172 H   0  0  0  0  0  0  0  0  0  0  0  0
   38.2434   -3.6091   43.0811 H   0  0  0  0  0  0  0  0  0  0  0  0
   36.3360   -4.7124   38.8934 H   0  0  0  0  0  0  0  0  0  0  0  0
   36.3227   -5.8969   36.5882 H   0  0  0  0  0  0  0  0  0  0  0  0
   34.8889   -5.8166   37.3540 H   0  0  0  0  0  0  0  0  0  0  0  0
   34.6271   -7.5268   35.9283 H   0  0  0  0  0  0  0  0  0  0  0  0
   42.0655   -7.7012   43.5745 H   0  0  0  0  0  0  0  0  0  0  0  0
   45.3283   -3.3598   48.9575 H   0  0  0  0  0  0  0  0  0  0  0  0
   46.1586   -4.2684   50.9693 H   0  0  0  0  0  0  0  0  0  0  0  0
   42.4943   -6.3415   48.7796 H   0  0  0  0  0  0  0  0  0  0  0  0
   40.7122   -8.3242   51.6148 H   0  0  0  0  0  0  0  0  0  0  0  0
   40.8346   -6.9714   50.6970 H   0  0  0  0  0  0  0  0  0  0  0  0
   42.1047   -6.3514   52.9810 H   0  0  0  0  0  0  0  0  0  0  0  0
   40.7156   -7.1493   53.4338 H   0  0  0  0  0  0  0  0  0  0  0  0
   39.5573   -5.6169   52.2374 H   0  0  0  0  0  0  0  0  0  0  0  0
   40.8331   -4.7910   54.5086 H   0  0  0  0  0  0  0  0  0  0  0  0
   39.2240   -5.0484   54.2627 H   0  0  0  0  0  0  0  0  0  0  0  0
   39.6022   -2.7318   54.5923 H   0  0  0  0  0  0  0  0  0  0  0  0
   39.0789   -3.0027   53.0621 H   0  0  0  0  0  0  0  0  0  0  0  0
   41.7199   -2.2615   53.9005 H   0  0  0  0  0  0  0  0  0  0  0  0
   40.8039   -1.6199   52.6794 H   0  0  0  0  0  0  0  0  0  0  0  0
   40.1521   -3.9655   51.0376 H   0  0  0  0  0  0  0  0  0  0  0  0
   41.4581   -4.9626   50.8751 H   0  0  0  0  0  0  0  0  0  0  0  0
   42.2292   -1.6238   48.7462 H   0  0  0  0  0  0  0  0  0  0  0  0
   43.8650   -1.5410   48.5437 H   0  0  0  0  0  0  0  0  0  0  0  0
  1  2  1  0  0  0  0
  1 51  1  0  0  0  0
  1 52  1  0  0  0  0
  1 53  1  0  0  0  0
  2  3  2  0  0  0  0
  2  4  2  0  0  0  0
  2  5  1  0  0  0  0
  5  6  1  0  0  0  0
  5 49  1  0  0  0  0
  6  7  1  0  0  0  0
  6 54  1  0  0  0  0
  6 55  1  0  0  0  0
  7  8  1  0  0  0  0
  7 56  1  0  0  0  0
  7 57  1  0  0  0  0
  8  9  2  0  0  0  0
  8 12  1  0  0  0  0
  9 10  1  0  0  0  0
  9 49  1  0  0  0  0
 10 11  2  0  0  0  0
 10 28  1  0  0  0  0
 11 12  1  0  0  0  0
 12 13  1  0  0  0  0
 13 14  1  0  0  0  0
 13 58  1  0  0  0  0
 13 59  1  0  0  0  0
 14 15  1  0  0  0  0
 14 27  1  0  0  0  0
 14 50  1  6  0  0  0
 15 16  1  0  0  0  0
 15 60  1  0  0  0  0
 15 61  1  0  0  0  0
 16 17  1  0  0  0  0
 16 21  1  0  0  0  0
 16 62  1  1  0  0  0
 17 18  1  0  0  0  0
 17 63  1  0  0  0  0
 17 64  1  0  0  0  0
 18 19  1  0  0  0  0
 18 65  1  0  0  0  0
 18 66  1  0  0  0  0
 19 20  1  0  0  0  0
 19 22  1  0  0  0  0
 19 67  1  1  0  0  0
 20 21  1  0  0  0  0
 20 68  1  0  0  0  0
 20 69  1  0  0  0  0
 21 70  1  0  0  0  0
 21 71  1  0  0  0  0
 22 23  1  0  0  0  0
 22 72  1  0  0  0  0
 23 24  2  0  0  0  0
 23 25  1  0  0  0  0
 25 26  1  0  0  0  0
 25 73  1  0  0  0  0
 25 74  1  0  0  0  0
 26 75  1  0  0  0  0
 27 76  1  0  0  0  0
 28 29  2  0  0  0  0
 28 33  1  0  0  0  0
 29 30  1  0  0  0  0
 29 77  1  0  0  0  0
 30 31  2  0  0  0  0
 30 78  1  0  0  0  0
 31 32  1  0  0  0  0
 31 45  1  0  0  0  0
 32 33  2  0  0  0  0
 32 34  1  0  0  0  0
 33 79  1  0  0  0  0
 34 35  1  0  0  0  0
 35 36  1  0  0  0  0
 35 80  1  0  0  0  0
 35 81  1  0  0  0  0
 36 37  1  0  0  0  0
 36 82  1  0  0  0  0
 36 83  1  0  0  0  0
 37 38  1  0  0  0  0
 37 42  1  0  0  0  0
 37 84  1  6  0  0  0
 38 39  1  0  0  0  0
 38 85  1  0  0  0  0
 38 86  1  0  0  0  0
 39 40  1  0  0  0  0
 39 87  1  0  0  0  0
 39 88  1  0  0  0  0
 40 41  1  0  0  0  0
 40 89  1  0  0  0  0
 40 90  1  0  0  0  0
 41 42  1  0  0  0  0
 41 43  1  0  0  0  0
 41 44  1  0  0  0  0
 42 91  1  0  0  0  0
 42 92  1  0  0  0  0
 45 46  1  0  0  0  0
 45 47  1  0  0  0  0
 45 48  1  0  0  0  0
 49 93  1  0  0  0  0
 49 94  1  0  0  0  0
M  CHG  2  16   1  37   1
M  END
