CatS_128:1_D
 OpenBabel12041818463D

 93 97  0  0  1  0  0  0  0  0999 V2000
   45.2285   -8.2139   49.4911 C   0  0  0  0  0  0  0  0  0  0  0  0
   43.8027   -8.6850   49.1591 C   0  0  0  0  0  0  0  0  0  0  0  0
   42.9730   -8.7131   50.4520 C   0  0  0  0  0  0  0  0  0  0  0  0
   43.2093   -7.8659   48.0875 N   0  0  0  0  0  0  0  0  0  0  0  0
   42.4574   -8.4549   47.1324 C   0  0  0  0  0  0  0  0  0  0  0  0
   42.2813   -9.6774   47.1452 O   0  0  0  0  0  0  0  0  0  0  0  0
   41.9194   -7.6815   46.1538 N   0  0  0  0  0  0  0  0  0  0  0  0
   41.1981   -8.3605   45.0558 C   0  0  0  0  0  0  0  0  0  0  0  0
   40.0971   -7.5404   44.3520 C   0  0  0  0  0  0  0  0  0  0  0  0
   40.5584   -6.1179   44.1089 C   0  0  0  0  0  0  0  0  0  0  0  0
   41.4421   -5.5329   44.9221 C   0  0  0  0  0  0  0  0  0  0  0  0
   41.6004   -4.2479   44.3592 C   0  0  0  0  0  0  0  0  0  0  0  0
   40.8471   -4.1652   43.2838 N   0  0  0  0  0  0  0  0  0  0  0  0
   40.1480   -5.3082   43.0962 N   0  0  0  0  0  0  0  0  0  0  0  0
   39.0723   -5.4577   42.1024 C   0  0  0  0  0  0  0  0  0  0  0  0
   38.1578   -4.2613   41.7493 C   0  0  2  0  0  0  0  0  0  0  0  0
   36.7705   -4.6868   41.2074 C   0  0  0  0  0  0  0  0  0  0  0  0
   36.8317   -5.5830   39.9950 N   0  3  0  0  0  0  0  0  0  0  0  0
   36.7130   -7.0490   40.3349 C   0  0  0  0  0  0  0  0  0  0  0  0
   36.8732   -7.9214   39.0725 C   0  0  0  0  0  0  0  0  0  0  0  0
   35.8289   -7.5153   38.0147 C   0  0  0  0  0  0  0  0  0  0  0  0
   35.9889   -6.0238   37.6646 C   0  0  0  0  0  0  0  0  0  0  0  0
   35.8376   -5.1662   38.9372 C   0  0  0  0  0  0  0  0  0  0  0  0
   38.8133   -3.3928   40.8140 O   0  0  0  0  0  0  0  0  0  0  0  0
   42.4232   -3.1550   44.8421 C   0  0  0  0  0  0  0  0  0  0  0  0
   43.7939   -3.1572   44.6596 C   0  0  0  0  0  0  0  0  0  0  0  0
   44.5607   -2.1201   45.1361 C   0  0  0  0  0  0  0  0  0  0  0  0
   43.9940   -1.0438   45.7900 C   0  0  0  0  0  0  0  0  0  0  0  0
   42.6145   -1.0360   45.9441 C   0  0  0  0  0  0  0  0  0  0  0  0
   41.8444   -2.0821   45.4914 C   0  0  0  0  0  0  0  0  0  0  0  0
   41.7479    0.3384   46.7135 S   0  0  0  0  0  0  0  0  0  0  0  0
   40.7037   -0.3654   48.0143 C   0  0  0  0  0  0  0  0  0  0  0  0
   41.4296   -0.2798   49.3750 C   0  0  0  0  0  0  0  0  0  0  0  0
   41.6377   -1.6144   50.0484 N   0  3  1  0  0  0  0  0  0  0  0  0
   40.3345   -2.2078   50.5240 C   0  0  0  0  0  0  0  0  0  0  0  0
   40.5791   -3.5112   51.3114 C   0  0  0  0  0  0  0  0  0  0  0  0
   41.3787   -4.5160   50.4540 C   0  0  1  0  0  0  0  0  0  0  0  0
   42.7077   -3.8946   49.9946 C   0  0  0  0  0  0  0  0  0  0  0  0
   42.4305   -2.5953   49.2175 C   0  0  0  0  0  0  0  0  0  0  0  0
   41.6496   -5.6595   51.1964 F   0  0  0  0  0  0  0  0  0  0  0  0
   44.9338    0.0541   46.2886 C   0  0  0  0  0  0  0  0  0  0  0  0
   44.6870    1.3017   45.7218 F   0  0  0  0  0  0  0  0  0  0  0  0
   44.8380    0.2119   47.6669 F   0  0  0  0  0  0  0  0  0  0  0  0
   46.2578   -0.2587   45.9984 F   0  0  0  0  0  0  0  0  0  0  0  0
   42.0815   -6.2038   46.1341 C   0  0  0  0  0  0  0  0  0  0  0  0
   37.9893   -3.7714   42.6046 H   0  0  0  0  0  0  0  0  0  0  0  0
   45.5540   -7.6187   48.7565 H   0  0  0  0  0  0  0  0  0  0  0  0
   45.2255   -7.7113   50.3556 H   0  0  0  0  0  0  0  0  0  0  0  0
   45.8331   -9.0058   49.5772 H   0  0  0  0  0  0  0  0  0  0  0  0
   43.8198   -9.6162   48.7949 H   0  0  0  0  0  0  0  0  0  0  0  0
   42.1549   -8.1519   50.3261 H   0  0  0  0  0  0  0  0  0  0  0  0
   42.7069   -9.6538   50.6624 H   0  0  0  0  0  0  0  0  0  0  0  0
   43.5171   -8.3517   51.2092 H   0  0  0  0  0  0  0  0  0  0  0  0
   43.3600   -7.0020   48.0658 H   0  0  0  0  0  0  0  0  0  0  0  0
   40.7743   -9.1846   45.4316 H   0  0  0  0  0  0  0  0  0  0  0  0
   41.8874   -8.5373   44.3533 H   0  0  0  0  0  0  0  0  0  0  0  0
   39.2779   -7.5287   44.9253 H   0  0  0  0  0  0  0  0  0  0  0  0
   39.8953   -7.9658   43.4697 H   0  0  0  0  0  0  0  0  0  0  0  0
   38.4759   -6.1896   42.4320 H   0  0  0  0  0  0  0  0  0  0  0  0
   39.5731   -5.6148   41.2513 H   0  0  0  0  0  0  0  0  0  0  0  0
   36.2596   -3.8618   40.9658 H   0  0  0  0  0  0  0  0  0  0  0  0
   36.3272   -5.2141   41.9322 H   0  0  0  0  0  0  0  0  0  0  0  0
   37.6548   -5.4635   39.6228 H   0  0  0  0  0  0  0  0  0  0  0  0
   35.8163   -7.2205   40.7428 H   0  0  0  0  0  0  0  0  0  0  0  0
   37.4387   -7.2870   40.9805 H   0  0  0  0  0  0  0  0  0  0  0  0
   36.7462   -8.8833   39.3146 H   0  0  0  0  0  0  0  0  0  0  0  0
   37.7897   -7.7874   38.6953 H   0  0  0  0  0  0  0  0  0  0  0  0
   34.9102   -7.6772   38.3747 H   0  0  0  0  0  0  0  0  0  0  0  0
   35.9673   -8.0624   37.1891 H   0  0  0  0  0  0  0  0  0  0  0  0
   35.2897   -5.7610   36.9996 H   0  0  0  0  0  0  0  0  0  0  0  0
   36.8971   -5.8732   37.2738 H   0  0  0  0  0  0  0  0  0  0  0  0
   35.9881   -4.2050   38.7062 H   0  0  0  0  0  0  0  0  0  0  0  0
   34.9148   -5.2976   39.2995 H   0  0  0  0  0  0  0  0  0  0  0  0
   39.0754   -3.8865   39.9778 H   0  0  0  0  0  0  0  0  0  0  0  0
   44.2301   -3.9175   44.1783 H   0  0  0  0  0  0  0  0  0  0  0  0
   45.5519   -2.1457   45.0061 H   0  0  0  0  0  0  0  0  0  0  0  0
   40.8549   -2.0657   45.6339 H   0  0  0  0  0  0  0  0  0  0  0  0
   40.5053   -1.3220   47.8010 H   0  0  0  0  0  0  0  0  0  0  0  0
   39.8489    0.1510   48.0655 H   0  0  0  0  0  0  0  0  0  0  0  0
   40.8901    0.3012   49.9843 H   0  0  0  0  0  0  0  0  0  0  0  0
   42.3391    0.0942   49.1930 H   0  0  0  0  0  0  0  0  0  0  0  0
   42.1285   -1.4481   50.7991 H   0  0  0  0  0  0  0  0  0  0  0  0
   39.7543   -2.4036   49.7334 H   0  0  0  0  0  0  0  0  0  0  0  0
   39.8855   -1.5498   51.1285 H   0  0  0  0  0  0  0  0  0  0  0  0
   39.6999   -3.9156   51.5634 H   0  0  0  0  0  0  0  0  0  0  0  0
   41.1051   -3.2987   52.1349 H   0  0  0  0  0  0  0  0  0  0  0  0
   40.8294   -4.7515   49.6522 H   0  0  0  0  0  0  0  0  0  0  0  0
   43.1924   -4.5407   49.4050 H   0  0  0  0  0  0  0  0  0  0  0  0
   43.2707   -3.6872   50.7946 H   0  0  0  0  0  0  0  0  0  0  0  0
   43.3008   -2.1760   48.9589 H   0  0  0  0  0  0  0  0  0  0  0  0
   41.8945   -2.8245   48.4050 H   0  0  0  0  0  0  0  0  0  0  0  0
   43.0588   -5.9918   46.1364 H   0  0  0  0  0  0  0  0  0  0  0  0
   41.6147   -5.8479   46.9437 H   0  0  0  0  0  0  0  0  0  0  0  0
  1  2  1  0  0  0  0
  1 47  1  0  0  0  0
  1 48  1  0  0  0  0
  1 49  1  0  0  0  0
  2  3  1  0  0  0  0
  2  4  1  0  0  0  0
  2 50  1  0  0  0  0
  3 51  1  0  0  0  0
  3 52  1  0  0  0  0
  3 53  1  0  0  0  0
  4  5  1  0  0  0  0
  4 54  1  0  0  0  0
  5  6  2  0  0  0  0
  5  7  1  0  0  0  0
  7  8  1  0  0  0  0
  7 45  1  0  0  0  0
  8  9  1  0  0  0  0
  8 55  1  0  0  0  0
  8 56  1  0  0  0  0
  9 10  1  0  0  0  0
  9 57  1  0  0  0  0
  9 58  1  0  0  0  0
 10 11  2  0  0  0  0
 10 14  1  0  0  0  0
 11 12  1  0  0  0  0
 11 45  1  0  0  0  0
 12 13  2  0  0  0  0
 12 25  1  0  0  0  0
 13 14  1  0  0  0  0
 14 15  1  0  0  0  0
 15 16  1  0  0  0  0
 15 59  1  0  0  0  0
 15 60  1  0  0  0  0
 16 17  1  0  0  0  0
 16 24  1  0  0  0  0
 16 46  1  1  0  0  0
 17 18  1  0  0  0  0
 17 61  1  0  0  0  0
 17 62  1  0  0  0  0
 18 19  1  0  0  0  0
 18 23  1  0  0  0  0
 18 63  1  0  0  0  0
 19 20  1  0  0  0  0
 19 64  1  0  0  0  0
 19 65  1  0  0  0  0
 20 21  1  0  0  0  0
 20 66  1  0  0  0  0
 20 67  1  0  0  0  0
 21 22  1  0  0  0  0
 21 68  1  0  0  0  0
 21 69  1  0  0  0  0
 22 23  1  0  0  0  0
 22 70  1  0  0  0  0
 22 71  1  0  0  0  0
 23 72  1  0  0  0  0
 23 73  1  0  0  0  0
 24 74  1  0  0  0  0
 25 26  2  0  0  0  0
 25 30  1  0  0  0  0
 26 27  1  0  0  0  0
 26 75  1  0  0  0  0
 27 28  2  0  0  0  0
 27 76  1  0  0  0  0
 28 29  1  0  0  0  0
 28 41  1  0  0  0  0
 29 30  2  0  0  0  0
 29 31  1  0  0  0  0
 30 77  1  0  0  0  0
 31 32  1  0  0  0  0
 32 33  1  0  0  0  0
 32 78  1  0  0  0  0
 32 79  1  0  0  0  0
 33 34  1  0  0  0  0
 33 80  1  0  0  0  0
 33 81  1  0  0  0  0
 34 35  1  0  0  0  0
 34 39  1  0  0  0  0
 34 82  1  1  0  0  0
 35 36  1  0  0  0  0
 35 83  1  0  0  0  0
 35 84  1  0  0  0  0
 36 37  1  0  0  0  0
 36 85  1  0  0  0  0
 36 86  1  0  0  0  0
 37 38  1  0  0  0  0
 37 40  1  0  0  0  0
 37 87  1  6  0  0  0
 38 39  1  0  0  0  0
 38 88  1  0  0  0  0
 38 89  1  0  0  0  0
 39 90  1  0  0  0  0
 39 91  1  0  0  0  0
 41 42  1  0  0  0  0
 41 43  1  0  0  0  0
 41 44  1  0  0  0  0
 45 92  1  0  0  0  0
 45 93  1  0  0  0  0
M  CHG  2  18   1  34   1
M  END
