CatS_309:1_D
 OpenBabel12041818463D

 82 87  0  0  1  0  0  0  0  0999 V2000
   38.8789   -9.7755   52.5764 C   0  0  0  0  0  0  0  0  0  0  0  0
   37.9757  -10.8856   53.1507 C   0  0  1  0  0  0  0  0  0  0  0  0
   36.4974  -10.4319   53.0858 C   0  0  0  0  0  0  0  0  0  0  0  0
   35.8904  -10.9107   51.8706 O   0  0  0  0  0  0  0  0  0  0  0  0
   35.7088  -12.3407   51.8637 C   0  0  0  0  0  0  0  0  0  0  0  0
   36.9115  -13.0673   52.5031 C   0  0  0  0  0  0  0  0  0  0  0  0
   38.1343  -12.1908   52.3955 N   0  3  2  0  0  0  0  0  0  0  0  0
   39.4458  -12.9291   52.6066 C   0  0  0  0  0  0  0  0  0  0  0  0
   39.8841  -13.8759   51.4636 C   0  0  0  0  0  0  0  0  0  0  0  0
   41.1968  -13.4040   50.7891 C   0  0  0  0  0  0  0  0  0  0  0  0
   41.2161  -12.5959   49.5530 N   0  0  0  0  0  0  0  0  0  0  0  0
   40.9510  -12.9185   48.2583 C   0  0  0  0  0  0  0  0  0  0  0  0
   41.1087  -11.8900   47.4253 C   0  0  0  0  0  0  0  0  0  0  0  0
   41.4999  -10.8247   48.2716 C   0  0  0  0  0  0  0  0  0  0  0  0
   41.5718  -11.2829   49.5044 N   0  0  0  0  0  0  0  0  0  0  0  0
   41.7632   -9.4559   47.8545 C   0  0  0  0  0  0  0  0  0  0  0  0
   42.7061   -8.6083   48.4189 C   0  0  0  0  0  0  0  0  0  0  0  0
   42.9287   -7.3542   47.8815 C   0  0  0  0  0  0  0  0  0  0  0  0
   42.2302   -6.9173   46.7761 C   0  0  0  0  0  0  0  0  0  0  0  0
   41.2630   -7.7492   46.2191 C   0  0  0  0  0  0  0  0  0  0  0  0
   41.0285   -8.9842   46.7936 C   0  0  0  0  0  0  0  0  0  0  0  0
   40.4747   -7.5076   45.0386 C   0  0  0  0  0  0  0  0  0  0  0  0
   39.8805   -7.1481   44.0342 C   0  0  0  0  0  0  0  0  0  0  0  0
   39.2625   -6.5863   42.8609 C   0  0  0  0  0  0  0  0  0  0  0  0
   38.8973   -5.2449   42.9092 C   0  0  0  0  0  0  0  0  0  0  0  0
   38.2454   -4.6694   41.8517 C   0  0  0  0  0  0  0  0  0  0  0  0
   37.9402   -5.4188   40.7355 C   0  0  0  0  0  0  0  0  0  0  0  0
   38.3074   -6.7547   40.6730 C   0  0  0  0  0  0  0  0  0  0  0  0
   38.9699   -7.3364   41.7270 C   0  0  0  0  0  0  0  0  0  0  0  0
   37.9585   -7.6143   39.4634 C   0  0  0  0  0  0  0  0  0  0  0  0
   37.5660   -6.7808   38.2679 N   0  3  0  0  0  0  0  0  0  0  0  0
   36.5757   -5.6916   38.5745 C   0  0  0  0  0  0  0  0  0  0  0  0
   37.2037   -4.7247   39.5973 C   0  0  0  0  0  0  0  0  0  0  0  0
   42.5579   -5.3562   46.0831 Cl  0  0  0  0  0  0  0  0  0  0  0  0
   40.8607  -12.0654   45.9301 C   0  0  0  0  0  0  0  0  0  0  0  0
   39.6710  -12.9218   45.8032 N   0  0  0  0  0  0  0  0  0  0  0  0
   40.0189  -14.2827   46.2588 C   0  0  0  0  0  0  0  0  0  0  0  0
   40.4685  -14.2684   47.7441 C   0  0  0  0  0  0  0  0  0  0  0  0
   38.6890  -12.6741   44.5513 S   0  0  0  0  0  0  0  0  0  0  0  0
   37.4646  -13.3809   44.7432 O   0  0  0  0  0  0  0  0  0  0  0  0
   38.3283  -11.2924   44.5313 O   0  0  0  0  0  0  0  0  0  0  0  0
   39.4345  -13.1290   42.9667 C   0  0  0  0  0  0  0  0  0  0  0  0
   38.2509  -11.0437   54.0991 H   0  0  0  0  0  0  0  0  0  0  0  0
   38.4563   -9.4079   51.7480 H   0  0  0  0  0  0  0  0  0  0  0  0
   38.9878   -9.0456   53.2513 H   0  0  0  0  0  0  0  0  0  0  0  0
   39.7787  -10.1531   52.3576 H   0  0  0  0  0  0  0  0  0  0  0  0
   36.4541   -9.4331   53.1099 H   0  0  0  0  0  0  0  0  0  0  0  0
   36.0031  -10.8080   53.8695 H   0  0  0  0  0  0  0  0  0  0  0  0
   35.6029  -12.6516   50.9192 H   0  0  0  0  0  0  0  0  0  0  0  0
   34.8929  -12.5554   52.4004 H   0  0  0  0  0  0  0  0  0  0  0  0
   37.0734  -13.9319   52.0274 H   0  0  0  0  0  0  0  0  0  0  0  0
   36.7175  -13.2549   53.4660 H   0  0  0  0  0  0  0  0  0  0  0  0
   38.1458  -11.9597   51.5144 H   0  0  0  0  0  0  0  0  0  0  0  0
   39.3613  -13.4726   53.4417 H   0  0  0  0  0  0  0  0  0  0  0  0
   40.1495  -12.2200   52.6516 H   0  0  0  0  0  0  0  0  0  0  0  0
   39.1592  -13.9107   50.7756 H   0  0  0  0  0  0  0  0  0  0  0  0
   40.0490  -14.7799   51.8580 H   0  0  0  0  0  0  0  0  0  0  0  0
   41.7189  -14.2329   50.5883 H   0  0  0  0  0  0  0  0  0  0  0  0
   41.5447  -12.7502   51.4611 H   0  0  0  0  0  0  0  0  0  0  0  0
   43.2273   -8.9063   49.2187 H   0  0  0  0  0  0  0  0  0  0  0  0
   43.6085   -6.7533   48.3020 H   0  0  0  0  0  0  0  0  0  0  0  0
   40.2965   -9.5559   46.4231 H   0  0  0  0  0  0  0  0  0  0  0  0
   39.1116   -4.6990   43.7192 H   0  0  0  0  0  0  0  0  0  0  0  0
   37.9901   -3.7033   41.8890 H   0  0  0  0  0  0  0  0  0  0  0  0
   39.2413   -8.2977   41.6787 H   0  0  0  0  0  0  0  0  0  0  0  0
   37.1973   -8.2169   39.7032 H   0  0  0  0  0  0  0  0  0  0  0  0
   38.7715   -8.1413   39.2158 H   0  0  0  0  0  0  0  0  0  0  0  0
   37.2347   -7.3189   37.6128 H   0  0  0  0  0  0  0  0  0  0  0  0
   38.3112   -6.4035   37.9028 H   0  0  0  0  0  0  0  0  0  0  0  0
   35.7410   -6.0910   38.9537 H   0  0  0  0  0  0  0  0  0  0  0  0
   36.3447   -5.1964   37.7371 H   0  0  0  0  0  0  0  0  0  0  0  0
   37.8508   -4.1324   39.1173 H   0  0  0  0  0  0  0  0  0  0  0  0
   36.4500   -4.2134   40.0102 H   0  0  0  0  0  0  0  0  0  0  0  0
   41.6500  -12.4992   45.4956 H   0  0  0  0  0  0  0  0  0  0  0  0
   40.7203  -11.1833   45.4803 H   0  0  0  0  0  0  0  0  0  0  0  0
   40.7615  -14.6399   45.6922 H   0  0  0  0  0  0  0  0  0  0  0  0
   39.2103  -14.8651   46.1756 H   0  0  0  0  0  0  0  0  0  0  0  0
   39.6948  -14.5579   48.3077 H   0  0  0  0  0  0  0  0  0  0  0  0
   41.2530  -14.8858   47.8029 H   0  0  0  0  0  0  0  0  0  0  0  0
   39.4538  -12.3245   42.3732 H   0  0  0  0  0  0  0  0  0  0  0  0
   40.3662  -13.4609   43.1146 H   0  0  0  0  0  0  0  0  0  0  0  0
   38.8955  -13.8532   42.5367 H   0  0  0  0  0  0  0  0  0  0  0  0
  1  2  1  0  0  0  0
  1 44  1  0  0  0  0
  1 45  1  0  0  0  0
  1 46  1  0  0  0  0
  2  3  1  0  0  0  0
  2  7  1  0  0  0  0
  2 43  1  1  0  0  0
  3  4  1  0  0  0  0
  3 47  1  0  0  0  0
  3 48  1  0  0  0  0
  4  5  1  0  0  0  0
  5  6  1  0  0  0  0
  5 49  1  0  0  0  0
  5 50  1  0  0  0  0
  6  7  1  0  0  0  0
  6 51  1  0  0  0  0
  6 52  1  0  0  0  0
  7  8  1  0  0  0  0
  7 53  1  6  0  0  0
  8  9  1  0  0  0  0
  8 54  1  0  0  0  0
  8 55  1  0  0  0  0
  9 10  1  0  0  0  0
  9 56  1  0  0  0  0
  9 57  1  0  0  0  0
 10 11  1  0  0  0  0
 10 58  1  0  0  0  0
 10 59  1  0  0  0  0
 11 12  1  0  0  0  0
 11 15  1  0  0  0  0
 12 13  2  0  0  0  0
 12 38  1  0  0  0  0
 13 14  1  0  0  0  0
 13 35  1  0  0  0  0
 14 15  2  0  0  0  0
 14 16  1  0  0  0  0
 16 17  2  0  0  0  0
 16 21  1  0  0  0  0
 17 18  1  0  0  0  0
 17 60  1  0  0  0  0
 18 19  2  0  0  0  0
 18 61  1  0  0  0  0
 19 20  1  0  0  0  0
 19 34  1  0  0  0  0
 20 21  2  0  0  0  0
 20 22  1  0  0  0  0
 21 62  1  0  0  0  0
 22 23  3  0  0  0  0
 23 24  1  0  0  0  0
 24 25  2  0  0  0  0
 24 29  1  0  0  0  0
 25 26  1  0  0  0  0
 25 63  1  0  0  0  0
 26 27  2  0  0  0  0
 26 64  1  0  0  0  0
 27 28  1  0  0  0  0
 27 33  1  0  0  0  0
 28 29  2  0  0  0  0
 28 30  1  0  0  0  0
 29 65  1  0  0  0  0
 30 31  1  0  0  0  0
 30 66  1  0  0  0  0
 30 67  1  0  0  0  0
 31 32  1  0  0  0  0
 31 68  1  0  0  0  0
 31 69  1  0  0  0  0
 32 33  1  0  0  0  0
 32 70  1  0  0  0  0
 32 71  1  0  0  0  0
 33 72  1  0  0  0  0
 33 73  1  0  0  0  0
 35 36  1  0  0  0  0
 35 74  1  0  0  0  0
 35 75  1  0  0  0  0
 36 37  1  0  0  0  0
 36 39  1  0  0  0  0
 37 38  1  0  0  0  0
 37 76  1  0  0  0  0
 37 77  1  0  0  0  0
 38 78  1  0  0  0  0
 38 79  1  0  0  0  0
 39 40  2  0  0  0  0
 39 41  2  0  0  0  0
 39 42  1  0  0  0  0
 42 80  1  0  0  0  0
 42 81  1  0  0  0  0
 42 82  1  0  0  0  0
M  CHG  2   7   1  31   1
M  END
