CatS_242:1_D
 OpenBabel12041818463D

 89 94  0  0  1  0  0  0  0  0999 V2000
   37.7735   -3.9115   41.3325 C   0  0  0  0  0  0  0  0  0  0  0  0
   37.1230   -5.2705   40.9885 C   0  0  1  0  0  0  0  0  0  0  0  0
   35.8532   -5.0211   40.1474 C   0  0  0  0  0  0  0  0  0  0  0  0
   35.1901   -6.2621   39.8370 O   0  0  0  0  0  0  0  0  0  0  0  0
   36.0052   -7.1345   39.0328 C   0  0  0  0  0  0  0  0  0  0  0  0
   37.3107   -7.4913   39.7677 C   0  0  0  0  0  0  0  0  0  0  0  0
   38.0164   -6.2372   40.2309 N   0  3  2  0  0  0  0  0  0  0  0  0
   39.3394   -6.5488   40.8879 C   0  0  0  0  0  0  0  0  0  0  0  0
   39.2507   -7.5136   42.0913 C   0  0  0  0  0  0  0  0  0  0  0  0
   39.0761   -6.7540   43.4273 C   0  0  0  0  0  0  0  0  0  0  0  0
   40.3158   -6.2872   44.0708 N   0  0  0  0  0  0  0  0  0  0  0  0
   41.0243   -6.7604   45.1291 C   0  0  0  0  0  0  0  0  0  0  0  0
   42.0850   -6.0022   45.4291 C   0  0  0  0  0  0  0  0  0  0  0  0
   42.0170   -4.9564   44.4787 C   0  0  0  0  0  0  0  0  0  0  0  0
   40.9700   -5.1689   43.7184 N   0  0  0  0  0  0  0  0  0  0  0  0
   42.8593   -3.7974   44.2387 C   0  0  0  0  0  0  0  0  0  0  0  0
   42.6632   -2.7406   45.1137 C   0  0  0  0  0  0  0  0  0  0  0  0
   43.3968   -1.5858   45.0086 C   0  0  0  0  0  0  0  0  0  0  0  0
   44.3451   -1.4720   44.0268 C   0  0  0  0  0  0  0  0  0  0  0  0
   44.5642   -2.5178   43.1320 C   0  0  0  0  0  0  0  0  0  0  0  0
   43.8151   -3.6892   43.2408 C   0  0  0  0  0  0  0  0  0  0  0  0
   45.5779   -2.2807   42.1345 C   0  0  0  0  0  0  0  0  0  0  0  0
   46.4519   -2.2154   41.2841 C   0  0  0  0  0  0  0  0  0  0  0  0
   47.4858   -2.2822   40.2835 C   0  0  0  0  0  0  0  0  0  0  0  0
   47.2846   -1.9190   38.9556 C   0  0  0  0  0  0  0  0  0  0  0  0
   48.3458   -1.9238   38.0832 C   0  0  0  0  0  0  0  0  0  0  0  0
   49.6065   -2.2983   38.5089 C   0  0  0  0  0  0  0  0  0  0  0  0
   49.7931   -2.7018   39.8148 C   0  0  0  0  0  0  0  0  0  0  0  0
   48.7493   -2.6854   40.7000 C   0  0  0  0  0  0  0  0  0  0  0  0
   50.7973   -2.2656   37.5593 C   0  0  0  0  0  0  0  0  0  0  0  0
   50.6069   -3.1152   36.3228 N   0  3  0  0  0  0  0  0  0  0  0  0
   51.6133   -4.2216   36.1225 C   0  0  0  0  0  0  0  0  0  0  0  0
   51.0312   -5.6137   36.3103 C   0  0  0  0  0  0  0  0  0  0  0  0
   50.7568   -6.4049   35.2162 C   0  0  0  0  0  0  0  0  0  0  0  0
   50.2050   -7.6545   35.3839 C   0  0  0  0  0  0  0  0  0  0  0  0
   49.9227   -8.1189   36.6497 C   0  0  0  0  0  0  0  0  0  0  0  0
   50.2032   -7.3333   37.7457 C   0  0  0  0  0  0  0  0  0  0  0  0
   50.7568   -6.0851   37.5755 C   0  0  0  0  0  0  0  0  0  0  0  0
   49.2082   -9.6913   36.8654 Cl  0  0  0  0  0  0  0  0  0  0  0  0
   45.2654   -0.0017   43.8979 Cl  0  0  0  0  0  0  0  0  0  0  0  0
   43.0397   -6.3252   46.5722 C   0  0  0  0  0  0  0  0  0  0  0  0
   42.4216   -7.1513   47.6377 N   0  0  0  0  0  0  0  0  0  0  0  0
   41.1512   -7.8803   47.3903 C   0  0  0  0  0  0  0  0  0  0  0  0
   40.6889   -8.0085   45.9199 C   0  0  0  0  0  0  0  0  0  0  0  0
   43.0408   -7.2076   48.8451 C   0  0  0  0  0  0  0  0  0  0  0  0
   44.1611   -6.7159   49.0205 O   0  0  0  0  0  0  0  0  0  0  0  0
   42.4043   -7.8039   49.8744 N   0  0  0  0  0  0  0  0  0  0  0  0
   36.9235   -5.7035   41.8675 H   0  0  0  0  0  0  0  0  0  0  0  0
   37.2801   -3.1843   40.8552 H   0  0  0  0  0  0  0  0  0  0  0  0
   37.7301   -3.7564   42.3195 H   0  0  0  0  0  0  0  0  0  0  0  0
   38.7314   -3.9145   41.0454 H   0  0  0  0  0  0  0  0  0  0  0  0
   36.1072   -4.5610   39.2966 H   0  0  0  0  0  0  0  0  0  0  0  0
   35.2265   -4.4492   40.6768 H   0  0  0  0  0  0  0  0  0  0  0  0
   36.2253   -6.6781   38.1706 H   0  0  0  0  0  0  0  0  0  0  0  0
   35.4966   -7.9772   38.8566 H   0  0  0  0  0  0  0  0  0  0  0  0
   37.9098   -8.0000   39.1494 H   0  0  0  0  0  0  0  0  0  0  0  0
   37.0897   -8.0508   40.5665 H   0  0  0  0  0  0  0  0  0  0  0  0
   38.2386   -5.8059   39.4590 H   0  0  0  0  0  0  0  0  0  0  0  0
   39.7422   -5.6896   41.2033 H   0  0  0  0  0  0  0  0  0  0  0  0
   39.8958   -7.0110   40.1973 H   0  0  0  0  0  0  0  0  0  0  0  0
   40.0882   -8.0584   42.1333 H   0  0  0  0  0  0  0  0  0  0  0  0
   38.4498   -8.0981   41.9615 H   0  0  0  0  0  0  0  0  0  0  0  0
   38.6063   -7.3619   44.0673 H   0  0  0  0  0  0  0  0  0  0  0  0
   38.5628   -5.9260   43.2014 H   0  0  0  0  0  0  0  0  0  0  0  0
   41.9748   -2.8211   45.8345 H   0  0  0  0  0  0  0  0  0  0  0  0
   43.2398   -0.8311   45.6455 H   0  0  0  0  0  0  0  0  0  0  0  0
   43.9665   -4.4451   42.6038 H   0  0  0  0  0  0  0  0  0  0  0  0
   46.3735   -1.6561   38.6383 H   0  0  0  0  0  0  0  0  0  0  0  0
   48.2048   -1.6538   37.1307 H   0  0  0  0  0  0  0  0  0  0  0  0
   50.6961   -3.0080   40.1164 H   0  0  0  0  0  0  0  0  0  0  0  0
   48.8961   -2.9642   41.6491 H   0  0  0  0  0  0  0  0  0  0  0  0
   51.6044   -2.5935   38.0502 H   0  0  0  0  0  0  0  0  0  0  0  0
   50.9015   -1.3200   37.2513 H   0  0  0  0  0  0  0  0  0  0  0  0
   49.7775   -3.4905   36.3552 H   0  0  0  0  0  0  0  0  0  0  0  0
   50.5772   -2.5833   35.5843 H   0  0  0  0  0  0  0  0  0  0  0  0
   52.3579   -4.0962   36.7782 H   0  0  0  0  0  0  0  0  0  0  0  0
   51.9303   -4.1624   35.1759 H   0  0  0  0  0  0  0  0  0  0  0  0
   50.9595   -6.0696   34.2961 H   0  0  0  0  0  0  0  0  0  0  0  0
   50.0091   -8.2256   34.5867 H   0  0  0  0  0  0  0  0  0  0  0  0
   50.0044   -7.6704   38.6659 H   0  0  0  0  0  0  0  0  0  0  0  0
   50.9607   -5.5178   38.3734 H   0  0  0  0  0  0  0  0  0  0  0  0
   43.3556   -5.4665   46.9759 H   0  0  0  0  0  0  0  0  0  0  0  0
   43.7935   -6.8574   46.1867 H   0  0  0  0  0  0  0  0  0  0  0  0
   40.4284   -7.4094   47.8960 H   0  0  0  0  0  0  0  0  0  0  0  0
   41.3290   -8.8185   47.6873 H   0  0  0  0  0  0  0  0  0  0  0  0
   41.1429   -8.7942   45.4999 H   0  0  0  0  0  0  0  0  0  0  0  0
   39.6965   -8.1316   45.9110 H   0  0  0  0  0  0  0  0  0  0  0  0
   41.5979   -8.1350   49.7793 H   0  0  0  0  0  0  0  0  0  0  0  0
   42.8006   -7.8523   50.6586 H   0  0  0  0  0  0  0  0  0  0  0  0
  1  2  1  0  0  0  0
  1 49  1  0  0  0  0
  1 50  1  0  0  0  0
  1 51  1  0  0  0  0
  2  3  1  0  0  0  0
  2  7  1  0  0  0  0
  2 48  1  1  0  0  0
  3  4  1  0  0  0  0
  3 52  1  0  0  0  0
  3 53  1  0  0  0  0
  4  5  1  0  0  0  0
  5  6  1  0  0  0  0
  5 54  1  0  0  0  0
  5 55  1  0  0  0  0
  6  7  1  0  0  0  0
  6 56  1  0  0  0  0
  6 57  1  0  0  0  0
  7  8  1  0  0  0  0
  7 58  1  6  0  0  0
  8  9  1  0  0  0  0
  8 59  1  0  0  0  0
  8 60  1  0  0  0  0
  9 10  1  0  0  0  0
  9 61  1  0  0  0  0
  9 62  1  0  0  0  0
 10 11  1  0  0  0  0
 10 63  1  0  0  0  0
 10 64  1  0  0  0  0
 11 12  1  0  0  0  0
 11 15  1  0  0  0  0
 12 13  2  0  0  0  0
 12 44  1  0  0  0  0
 13 14  1  0  0  0  0
 13 41  1  0  0  0  0
 14 15  2  0  0  0  0
 14 16  1  0  0  0  0
 16 17  2  0  0  0  0
 16 21  1  0  0  0  0
 17 18  1  0  0  0  0
 17 65  1  0  0  0  0
 18 19  2  0  0  0  0
 18 66  1  0  0  0  0
 19 20  1  0  0  0  0
 19 40  1  0  0  0  0
 20 21  2  0  0  0  0
 20 22  1  0  0  0  0
 21 67  1  0  0  0  0
 22 23  3  0  0  0  0
 23 24  1  0  0  0  0
 24 25  2  0  0  0  0
 24 29  1  0  0  0  0
 25 26  1  0  0  0  0
 25 68  1  0  0  0  0
 26 27  2  0  0  0  0
 26 69  1  0  0  0  0
 27 28  1  0  0  0  0
 27 30  1  0  0  0  0
 28 29  2  0  0  0  0
 28 70  1  0  0  0  0
 29 71  1  0  0  0  0
 30 31  1  0  0  0  0
 30 72  1  0  0  0  0
 30 73  1  0  0  0  0
 31 32  1  0  0  0  0
 31 74  1  0  0  0  0
 31 75  1  0  0  0  0
 32 33  1  0  0  0  0
 32 76  1  0  0  0  0
 32 77  1  0  0  0  0
 33 34  2  0  0  0  0
 33 38  1  0  0  0  0
 34 35  1  0  0  0  0
 34 78  1  0  0  0  0
 35 36  2  0  0  0  0
 35 79  1  0  0  0  0
 36 37  1  0  0  0  0
 36 39  1  0  0  0  0
 37 38  2  0  0  0  0
 37 80  1  0  0  0  0
 38 81  1  0  0  0  0
 41 42  1  0  0  0  0
 41 82  1  0  0  0  0
 41 83  1  0  0  0  0
 42 43  1  0  0  0  0
 42 45  1  0  0  0  0
 43 44  1  0  0  0  0
 43 84  1  0  0  0  0
 43 85  1  0  0  0  0
 44 86  1  0  0  0  0
 44 87  1  0  0  0  0
 45 46  2  0  0  0  0
 45 47  1  0  0  0  0
 47 88  1  0  0  0  0
 47 89  1  0  0  0  0
M  CHG  2   7   1  31   1
M  END
