CatS_410:1_D
 OpenBabel12041818463D

 90 96  0  0  1  0  0  0  0  0999 V2000
   48.4822   -2.2824   37.9841 C   0  0  0  0  0  0  0  0  0  0  0  0
   47.4895   -2.2996   38.9299 C   0  0  0  0  0  0  0  0  0  0  0  0
   47.8172   -2.3166   40.2809 C   0  0  0  0  0  0  0  0  0  0  0  0
   49.1546   -2.3308   40.6604 C   0  0  0  0  0  0  0  0  0  0  0  0
   50.1363   -2.3304   39.7022 C   0  0  0  0  0  0  0  0  0  0  0  0
   49.8111   -2.3035   38.3600 C   0  0  0  0  0  0  0  0  0  0  0  0
   50.9308   -2.2647   37.3266 C   0  0  0  0  0  0  0  0  0  0  0  0
   50.7299   -3.1412   36.1127 N   0  3  0  0  0  0  0  0  0  0  0  0
   51.6938   -4.2929   35.9609 C   0  0  0  0  0  0  0  0  0  0  0  0
   51.0438   -5.6493   36.1875 C   0  0  0  0  0  0  0  0  0  0  0  0
   50.5835   -6.0027   37.4377 C   0  0  0  0  0  0  0  0  0  0  0  0
   50.0148   -7.2383   37.6456 C   0  0  0  0  0  0  0  0  0  0  0  0
   49.9081   -8.1313   36.6028 C   0  0  0  0  0  0  0  0  0  0  0  0
   50.3649   -7.7812   35.3516 C   0  0  0  0  0  0  0  0  0  0  0  0
   50.9308   -6.5438   35.1461 C   0  0  0  0  0  0  0  0  0  0  0  0
   49.2044   -9.7004   36.8663 Cl  0  0  0  0  0  0  0  0  0  0  0  0
   46.7722   -2.3051   41.2718 C   0  0  0  0  0  0  0  0  0  0  0  0
   45.8972   -2.2851   42.1220 C   0  0  0  0  0  0  0  0  0  0  0  0
   44.8760   -2.2444   43.1364 C   0  0  0  0  0  0  0  0  0  0  0  0
   44.1021   -3.3657   43.4099 C   0  0  0  0  0  0  0  0  0  0  0  0
   43.1423   -3.3319   44.4008 C   0  0  0  0  0  0  0  0  0  0  0  0
   42.9451   -2.1484   45.1013 C   0  0  0  0  0  0  0  0  0  0  0  0
   43.7054   -1.0312   44.8320 C   0  0  0  0  0  0  0  0  0  0  0  0
   44.6745   -1.0734   43.8602 C   0  0  0  0  0  0  0  0  0  0  0  0
   45.6460    0.3303   43.5293 Cl  0  0  0  0  0  0  0  0  0  0  0  0
   42.3716   -4.5330   44.6810 C   0  0  0  0  0  0  0  0  0  0  0  0
   42.4481   -5.4078   45.7925 C   0  0  0  0  0  0  0  0  0  0  0  0
   41.5260   -6.3356   45.5212 C   0  0  0  0  0  0  0  0  0  0  0  0
   40.8912   -6.1165   44.3438 N   0  0  0  0  0  0  0  0  0  0  0  0
   41.4508   -4.9873   43.8578 N   0  0  0  0  0  0  0  0  0  0  0  0
   39.8726   -6.9216   43.6540 C   0  0  0  0  0  0  0  0  0  0  0  0
   39.7509   -6.7319   42.1308 C   0  0  0  0  0  0  0  0  0  0  0  0
   38.8647   -5.5147   41.8012 C   0  0  0  0  0  0  0  0  0  0  0  0
   37.8878   -5.7984   40.6919 N   0  3  1  0  0  0  0  0  0  0  0  0
   37.3655   -7.2046   40.7104 C   0  0  0  0  0  0  0  0  0  0  0  0
   36.0983   -7.1385   39.8374 C   0  0  2  0  0  0  0  0  0  0  0  0
   36.3723   -7.5014   38.3658 C   0  0  0  0  0  0  0  0  0  0  0  0
   36.5857   -6.2535   37.7071 O   0  0  0  0  0  0  0  0  0  0  0  0
   35.7156   -5.2768   38.3056 C   0  0  0  0  0  0  0  0  0  0  0  0
   35.6710   -5.6557   39.7981 C   0  0  2  0  0  0  0  0  0  0  0  0
   36.7026   -4.8753   40.6365 C   0  0  0  0  0  0  0  0  0  0  0  0
   41.2377   -7.4999   46.4487 C   0  0  0  0  0  0  0  0  0  0  0  0
   42.4558   -7.8141   47.3410 C   0  0  0  0  0  0  0  0  0  0  0  0
   43.1326   -6.6233   47.8999 N   0  0  0  0  0  0  0  0  0  0  0  0
   43.3162   -5.4200   47.0465 C   0  0  0  0  0  0  0  0  0  0  0  0
   43.6308   -6.6904   49.1613 C   0  0  0  0  0  0  0  0  0  0  0  0
   43.4131   -7.6631   49.8921 O   0  0  0  0  0  0  0  0  0  0  0  0
   44.3934   -5.6733   49.6117 N   0  0  0  0  0  0  0  0  0  0  0  0
   35.4265   -7.7714   40.2218 H   0  0  0  0  0  0  0  0  0  0  0  0
   34.7632   -5.4618   40.1701 H   0  0  0  0  0  0  0  0  0  0  0  0
   48.2419   -2.2545   37.0138 H   0  0  0  0  0  0  0  0  0  0  0  0
   46.5301   -2.2998   38.6480 H   0  0  0  0  0  0  0  0  0  0  0  0
   49.4005   -2.3413   41.6296 H   0  0  0  0  0  0  0  0  0  0  0  0
   51.0972   -2.3497   39.9783 H   0  0  0  0  0  0  0  0  0  0  0  0
   51.7771   -2.5486   37.7773 H   0  0  0  0  0  0  0  0  0  0  0  0
   50.9533   -1.3257   36.9834 H   0  0  0  0  0  0  0  0  0  0  0  0
   49.8868   -3.4832   36.1591 H   0  0  0  0  0  0  0  0  0  0  0  0
   50.7148   -2.6367   35.3545 H   0  0  0  0  0  0  0  0  0  0  0  0
   52.4354   -4.1782   36.6219 H   0  0  0  0  0  0  0  0  0  0  0  0
   52.0293   -4.2783   35.0190 H   0  0  0  0  0  0  0  0  0  0  0  0
   50.6633   -5.3577   38.1977 H   0  0  0  0  0  0  0  0  0  0  0  0
   49.6791   -7.4878   38.5539 H   0  0  0  0  0  0  0  0  0  0  0  0
   50.2854   -8.4266   34.5919 H   0  0  0  0  0  0  0  0  0  0  0  0
   51.2615   -6.2927   34.2364 H   0  0  0  0  0  0  0  0  0  0  0  0
   44.2419   -4.2046   42.8837 H   0  0  0  0  0  0  0  0  0  0  0  0
   42.2416   -2.1067   45.8109 H   0  0  0  0  0  0  0  0  0  0  0  0
   43.5508   -0.1872   45.3458 H   0  0  0  0  0  0  0  0  0  0  0  0
   38.9856   -6.7021   44.0603 H   0  0  0  0  0  0  0  0  0  0  0  0
   40.1638   -7.8706   43.7753 H   0  0  0  0  0  0  0  0  0  0  0  0
   39.3476   -7.5533   41.7274 H   0  0  0  0  0  0  0  0  0  0  0  0
   40.6636   -6.5747   41.7531 H   0  0  0  0  0  0  0  0  0  0  0  0
   39.4522   -4.7529   41.5279 H   0  0  0  0  0  0  0  0  0  0  0  0
   38.3368   -5.2921   42.6207 H   0  0  0  0  0  0  0  0  0  0  0  0
   38.3348   -5.7035   39.9033 H   0  0  0  0  0  0  0  0  0  0  0  0
   37.1445   -7.4919   41.6424 H   0  0  0  0  0  0  0  0  0  0  0  0
   38.0322   -7.8688   40.3723 H   0  0  0  0  0  0  0  0  0  0  0  0
   35.5894   -7.9810   37.9695 H   0  0  0  0  0  0  0  0  0  0  0  0
   37.1584   -8.1123   38.2714 H   0  0  0  0  0  0  0  0  0  0  0  0
   34.8025   -5.3201   37.9004 H   0  0  0  0  0  0  0  0  0  0  0  0
   36.0414   -4.3421   38.1631 H   0  0  0  0  0  0  0  0  0  0  0  0
   36.9427   -4.0100   40.1964 H   0  0  0  0  0  0  0  0  0  0  0  0
   36.3588   -4.6310   41.5432 H   0  0  0  0  0  0  0  0  0  0  0  0
   41.0133   -8.3068   45.9022 H   0  0  0  0  0  0  0  0  0  0  0  0
   40.4689   -7.2530   47.0385 H   0  0  0  0  0  0  0  0  0  0  0  0
   43.1197   -8.3263   46.7961 H   0  0  0  0  0  0  0  0  0  0  0  0
   42.1087   -8.3338   48.1217 H   0  0  0  0  0  0  0  0  0  0  0  0
   43.0964   -4.6099   47.5901 H   0  0  0  0  0  0  0  0  0  0  0  0
   44.2675   -5.4291   46.7384 H   0  0  0  0  0  0  0  0  0  0  0  0
   44.5856   -4.9883   49.0985 H   0  0  0  0  0  0  0  0  0  0  0  0
   44.7123   -5.7018   50.4316 H   0  0  0  0  0  0  0  0  0  0  0  0
  1  2  2  0  0  0  0
  1  6  1  0  0  0  0
  1 51  1  0  0  0  0
  2  3  1  0  0  0  0
  2 52  1  0  0  0  0
  3  4  2  0  0  0  0
  3 17  1  0  0  0  0
  4  5  1  0  0  0  0
  4 53  1  0  0  0  0
  5  6  2  0  0  0  0
  5 54  1  0  0  0  0
  6  7  1  0  0  0  0
  7  8  1  0  0  0  0
  7 55  1  0  0  0  0
  7 56  1  0  0  0  0
  8  9  1  0  0  0  0
  8 57  1  0  0  0  0
  8 58  1  0  0  0  0
  9 10  1  0  0  0  0
  9 59  1  0  0  0  0
  9 60  1  0  0  0  0
 10 11  2  0  0  0  0
 10 15  1  0  0  0  0
 11 12  1  0  0  0  0
 11 61  1  0  0  0  0
 12 13  2  0  0  0  0
 12 62  1  0  0  0  0
 13 14  1  0  0  0  0
 13 16  1  0  0  0  0
 14 15  2  0  0  0  0
 14 63  1  0  0  0  0
 15 64  1  0  0  0  0
 17 18  3  0  0  0  0
 18 19  1  0  0  0  0
 19 20  2  0  0  0  0
 19 24  1  0  0  0  0
 20 21  1  0  0  0  0
 20 65  1  0  0  0  0
 21 22  2  0  0  0  0
 21 26  1  0  0  0  0
 22 23  1  0  0  0  0
 22 66  1  0  0  0  0
 23 24  2  0  0  0  0
 23 67  1  0  0  0  0
 24 25  1  0  0  0  0
 26 27  1  0  0  0  0
 26 30  2  0  0  0  0
 27 28  2  0  0  0  0
 27 45  1  0  0  0  0
 28 29  1  0  0  0  0
 28 42  1  0  0  0  0
 29 30  1  0  0  0  0
 29 31  1  0  0  0  0
 31 32  1  0  0  0  0
 31 68  1  0  0  0  0
 31 69  1  0  0  0  0
 32 33  1  0  0  0  0
 32 70  1  0  0  0  0
 32 71  1  0  0  0  0
 33 34  1  0  0  0  0
 33 72  1  0  0  0  0
 33 73  1  0  0  0  0
 34 35  1  0  0  0  0
 34 41  1  0  0  0  0
 34 74  1  6  0  0  0
 35 36  1  0  0  0  0
 35 75  1  0  0  0  0
 35 76  1  0  0  0  0
 36 37  1  0  0  0  0
 36 40  1  0  0  0  0
 36 49  1  1  0  0  0
 37 38  1  0  0  0  0
 37 77  1  0  0  0  0
 37 78  1  0  0  0  0
 38 39  1  0  0  0  0
 39 40  1  0  0  0  0
 39 79  1  0  0  0  0
 39 80  1  0  0  0  0
 40 41  1  0  0  0  0
 40 50  1  1  0  0  0
 41 81  1  0  0  0  0
 41 82  1  0  0  0  0
 42 43  1  0  0  0  0
 42 83  1  0  0  0  0
 42 84  1  0  0  0  0
 43 44  1  0  0  0  0
 43 85  1  0  0  0  0
 43 86  1  0  0  0  0
 44 45  1  0  0  0  0
 44 46  1  0  0  0  0
 45 87  1  0  0  0  0
 45 88  1  0  0  0  0
 46 47  2  0  0  0  0
 46 48  1  0  0  0  0
 48 89  1  0  0  0  0
 48 90  1  0  0  0  0
M  CHG  2   8   1  34   1
M  END
