CatS_452:1_D
 OpenBabel12041818463D

 91 96  0  0  1  0  0  0  0  0999 V2000
   43.0916   -9.4076   47.5013 C   0  0  0  0  0  0  0  0  0  0  0  0
   41.6299   -8.4465   47.9884 S   0  0  0  0  0  0  0  0  0  0  0  0
   40.6000   -9.3474   48.3865 O   0  0  0  0  0  0  0  0  0  0  0  0
   42.0192   -7.5268   49.0062 O   0  0  0  0  0  0  0  0  0  0  0  0
   41.0965   -7.5757   46.7072 N   0  0  0  0  0  0  0  0  0  0  0  0
   40.5859   -8.4265   45.6095 C   0  0  0  0  0  0  0  0  0  0  0  0
   39.7112   -7.6530   44.5993 C   0  0  0  0  0  0  0  0  0  0  0  0
   40.3665   -6.3424   44.2113 C   0  0  0  0  0  0  0  0  0  0  0  0
   41.3728   -5.8100   44.9077 C   0  0  0  0  0  0  0  0  0  0  0  0
   41.6552   -4.6108   44.2078 C   0  0  0  0  0  0  0  0  0  0  0  0
   40.8281   -4.5173   43.1848 N   0  0  0  0  0  0  0  0  0  0  0  0
   40.0033   -5.5870   43.1475 N   0  0  0  0  0  0  0  0  0  0  0  0
   39.0296   -5.8713   42.0873 C   0  0  0  0  0  0  0  0  0  0  0  0
   38.3888   -4.6347   41.4368 C   0  0  0  0  0  0  0  0  0  0  0  0
   38.2456   -4.8097   39.9096 C   0  0  0  0  0  0  0  0  0  0  0  0
   36.8234   -4.6932   39.4136 N   0  3  0  0  0  0  0  0  0  0  0  0
   36.6527   -5.2269   38.0116 C   0  0  0  0  0  0  0  0  0  0  0  0
   36.7360   -6.7678   37.9888 C   0  0  0  0  0  0  0  0  0  0  0  0
   35.7034   -7.3769   38.9574 C   0  0  0  0  0  0  0  0  0  0  0  0
   35.9254   -6.8318   40.3808 C   0  0  0  0  0  0  0  0  0  0  0  0
   35.8205   -5.2938   40.3689 C   0  0  0  0  0  0  0  0  0  0  0  0
   42.6774   -3.6119   44.4770 C   0  0  0  0  0  0  0  0  0  0  0  0
   42.5175   -2.7941   45.5877 C   0  0  0  0  0  0  0  0  0  0  0  0
   43.4588   -1.8402   45.8996 C   0  0  0  0  0  0  0  0  0  0  0  0
   44.5707   -1.6803   45.1102 C   0  0  0  0  0  0  0  0  0  0  0  0
   44.7530   -2.4896   43.9895 C   0  0  0  0  0  0  0  0  0  0  0  0
   43.7997   -3.4608   43.6842 C   0  0  0  0  0  0  0  0  0  0  0  0
   45.9259   -2.2700   43.1777 C   0  0  0  0  0  0  0  0  0  0  0  0
   46.9274   -2.1441   42.4877 C   0  0  0  0  0  0  0  0  0  0  0  0
   48.1165   -2.0597   41.6756 C   0  0  0  0  0  0  0  0  0  0  0  0
   49.3944   -2.2208   42.2074 C   0  0  0  0  0  0  0  0  0  0  0  0
   50.4889   -2.1716   41.3857 C   0  0  0  0  0  0  0  0  0  0  0  0
   50.3588   -1.9586   40.0140 C   0  0  0  0  0  0  0  0  0  0  0  0
   49.0762   -1.7810   39.4997 C   0  0  0  0  0  0  0  0  0  0  0  0
   47.9765   -1.8303   40.3097 C   0  0  0  0  0  0  0  0  0  0  0  0
   51.5561   -1.9574   39.1361 C   0  0  0  0  0  0  0  0  0  0  0  0
   52.6096   -2.3593   39.6288 O   0  0  0  0  0  0  0  0  0  0  0  0
   51.4528   -1.5548   37.8497 N   0  0  0  0  0  0  0  0  0  0  0  0
   52.5413   -1.8251   36.8988 C   0  0  0  0  0  0  0  0  0  0  0  0
   52.0653   -2.5054   35.6031 C   0  0  2  0  0  0  0  0  0  0  0  0
   51.3564   -3.8337   35.9052 C   0  0  0  0  0  0  0  0  0  0  0  0
   52.4837   -4.8824   35.9813 C   0  0  0  0  0  0  0  0  0  0  0  0
   53.6788   -4.3008   35.1971 C   0  0  0  0  0  0  0  0  0  0  0  0
   53.1833   -2.9663   34.7174 N   0  3  0  0  0  0  0  0  0  0  0  0
   45.7432   -0.4572   45.5169 Cl  0  0  0  0  0  0  0  0  0  0  0  0
   41.9606   -6.5086   46.1355 C   0  0  0  0  0  0  0  0  0  0  0  0
   51.4958   -1.8046   35.1735 H   0  0  0  0  0  0  0  0  0  0  0  0
   43.2964   -9.2239   46.5399 H   0  0  0  0  0  0  0  0  0  0  0  0
   43.8726   -9.1453   48.0682 H   0  0  0  0  0  0  0  0  0  0  0  0
   42.9106  -10.3829   47.6277 H   0  0  0  0  0  0  0  0  0  0  0  0
   40.0410   -9.1657   46.0052 H   0  0  0  0  0  0  0  0  0  0  0  0
   41.3788   -8.7747   45.1095 H   0  0  0  0  0  0  0  0  0  0  0  0
   38.8190   -7.4670   45.0109 H   0  0  0  0  0  0  0  0  0  0  0  0
   39.6028   -8.2112   43.7765 H   0  0  0  0  0  0  0  0  0  0  0  0
   38.2994   -6.4313   42.4786 H   0  0  0  0  0  0  0  0  0  0  0  0
   39.5386   -6.3326   41.3605 H   0  0  0  0  0  0  0  0  0  0  0  0
   38.9599   -3.8351   41.6228 H   0  0  0  0  0  0  0  0  0  0  0  0
   37.4751   -4.5140   41.8248 H   0  0  0  0  0  0  0  0  0  0  0  0
   38.5963   -5.7122   39.6599 H   0  0  0  0  0  0  0  0  0  0  0  0
   38.7635   -4.0689   39.4818 H   0  0  0  0  0  0  0  0  0  0  0  0
   36.6367   -3.8022   39.3685 H   0  0  0  0  0  0  0  0  0  0  0  0
   37.3714   -4.8499   37.4274 H   0  0  0  0  0  0  0  0  0  0  0  0
   35.7509   -4.9542   37.6761 H   0  0  0  0  0  0  0  0  0  0  0  0
   37.6550   -7.0535   38.2607 H   0  0  0  0  0  0  0  0  0  0  0  0
   36.5387   -7.0892   37.0626 H   0  0  0  0  0  0  0  0  0  0  0  0
   35.8001   -8.3722   38.9629 H   0  0  0  0  0  0  0  0  0  0  0  0
   34.7838   -7.1284   38.6532 H   0  0  0  0  0  0  0  0  0  0  0  0
   36.8316   -7.1035   40.7051 H   0  0  0  0  0  0  0  0  0  0  0  0
   35.2277   -7.2060   40.9917 H   0  0  0  0  0  0  0  0  0  0  0  0
   34.8983   -5.0282   40.0877 H   0  0  0  0  0  0  0  0  0  0  0  0
   36.0133   -4.9544   41.2896 H   0  0  0  0  0  0  0  0  0  0  0  0
   41.7093   -2.8994   46.1672 H   0  0  0  0  0  0  0  0  0  0  0  0
   43.3327   -1.2610   46.7049 H   0  0  0  0  0  0  0  0  0  0  0  0
   43.9288   -4.0512   42.8875 H   0  0  0  0  0  0  0  0  0  0  0  0
   49.5123   -2.3723   43.1888 H   0  0  0  0  0  0  0  0  0  0  0  0
   51.4009   -2.2910   41.7780 H   0  0  0  0  0  0  0  0  0  0  0  0
   48.9582   -1.6146   38.5209 H   0  0  0  0  0  0  0  0  0  0  0  0
   47.0654   -1.7006   39.9186 H   0  0  0  0  0  0  0  0  0  0  0  0
   50.7295   -1.1416   37.5677 H   0  0  0  0  0  0  0  0  0  0  0  0
   53.2125   -2.4183   37.3432 H   0  0  0  0  0  0  0  0  0  0  0  0
   52.9335   -0.9423   36.6404 H   0  0  0  0  0  0  0  0  0  0  0  0
   50.7097   -4.0618   35.1773 H   0  0  0  0  0  0  0  0  0  0  0  0
   50.8274   -3.7917   36.7527 H   0  0  0  0  0  0  0  0  0  0  0  0
   52.1844   -5.7438   35.5709 H   0  0  0  0  0  0  0  0  0  0  0  0
   52.7347   -5.0743   36.9301 H   0  0  0  0  0  0  0  0  0  0  0  0
   53.9217   -4.8906   34.4270 H   0  0  0  0  0  0  0  0  0  0  0  0
   54.5052   -4.2256   35.7550 H   0  0  0  0  0  0  0  0  0  0  0  0
   53.8517   -2.3501   34.6586 H   0  0  0  0  0  0  0  0  0  0  0  0
   52.8760   -3.0556   33.8649 H   0  0  0  0  0  0  0  0  0  0  0  0
   42.8355   -6.9179   45.8767 H   0  0  0  0  0  0  0  0  0  0  0  0
   42.0549   -5.8082   46.8430 H   0  0  0  0  0  0  0  0  0  0  0  0
  1  2  1  0  0  0  0
  1 48  1  0  0  0  0
  1 49  1  0  0  0  0
  1 50  1  0  0  0  0
  2  3  2  0  0  0  0
  2  4  2  0  0  0  0
  2  5  1  0  0  0  0
  5  6  1  0  0  0  0
  5 46  1  0  0  0  0
  6  7  1  0  0  0  0
  6 51  1  0  0  0  0
  6 52  1  0  0  0  0
  7  8  1  0  0  0  0
  7 53  1  0  0  0  0
  7 54  1  0  0  0  0
  8  9  2  0  0  0  0
  8 12  1  0  0  0  0
  9 10  1  0  0  0  0
  9 46  1  0  0  0  0
 10 11  2  0  0  0  0
 10 22  1  0  0  0  0
 11 12  1  0  0  0  0
 12 13  1  0  0  0  0
 13 14  1  0  0  0  0
 13 55  1  0  0  0  0
 13 56  1  0  0  0  0
 14 15  1  0  0  0  0
 14 57  1  0  0  0  0
 14 58  1  0  0  0  0
 15 16  1  0  0  0  0
 15 59  1  0  0  0  0
 15 60  1  0  0  0  0
 16 17  1  0  0  0  0
 16 21  1  0  0  0  0
 16 61  1  0  0  0  0
 17 18  1  0  0  0  0
 17 62  1  0  0  0  0
 17 63  1  0  0  0  0
 18 19  1  0  0  0  0
 18 64  1  0  0  0  0
 18 65  1  0  0  0  0
 19 20  1  0  0  0  0
 19 66  1  0  0  0  0
 19 67  1  0  0  0  0
 20 21  1  0  0  0  0
 20 68  1  0  0  0  0
 20 69  1  0  0  0  0
 21 70  1  0  0  0  0
 21 71  1  0  0  0  0
 22 23  2  0  0  0  0
 22 27  1  0  0  0  0
 23 24  1  0  0  0  0
 23 72  1  0  0  0  0
 24 25  2  0  0  0  0
 24 73  1  0  0  0  0
 25 26  1  0  0  0  0
 25 45  1  0  0  0  0
 26 27  2  0  0  0  0
 26 28  1  0  0  0  0
 27 74  1  0  0  0  0
 28 29  3  0  0  0  0
 29 30  1  0  0  0  0
 30 31  2  0  0  0  0
 30 35  1  0  0  0  0
 31 32  1  0  0  0  0
 31 75  1  0  0  0  0
 32 33  2  0  0  0  0
 32 76  1  0  0  0  0
 33 34  1  0  0  0  0
 33 36  1  0  0  0  0
 34 35  2  0  0  0  0
 34 77  1  0  0  0  0
 35 78  1  0  0  0  0
 36 37  2  0  0  0  0
 36 38  1  0  0  0  0
 38 39  1  0  0  0  0
 38 79  1  0  0  0  0
 39 40  1  0  0  0  0
 39 80  1  0  0  0  0
 39 81  1  0  0  0  0
 40 41  1  0  0  0  0
 40 44  1  0  0  0  0
 40 47  1  6  0  0  0
 41 42  1  0  0  0  0
 41 82  1  0  0  0  0
 41 83  1  0  0  0  0
 42 43  1  0  0  0  0
 42 84  1  0  0  0  0
 42 85  1  0  0  0  0
 43 44  1  0  0  0  0
 43 86  1  0  0  0  0
 43 87  1  0  0  0  0
 44 88  1  0  0  0  0
 44 89  1  0  0  0  0
 46 90  1  0  0  0  0
 46 91  1  0  0  0  0
M  CHG  2  16   1  44   1
M  END
