CatS_200:1_D
 OpenBabel12041818463D

 83 87  0  0  1  0  0  0  0  0999 V2000
   37.8604   -4.7159   41.9187 C   0  0  0  0  0  0  0  0  0  0  0  0
   36.9313   -4.8888   40.9191 C   0  0  0  0  0  0  0  0  0  0  0  0
   37.1114   -5.8303   39.9264 C   0  0  0  0  0  0  0  0  0  0  0  0
   38.2633   -6.6024   39.9693 C   0  0  0  0  0  0  0  0  0  0  0  0
   39.1952   -6.4327   40.9664 C   0  0  0  0  0  0  0  0  0  0  0  0
   39.0114   -5.4843   41.9542 C   0  0  0  0  0  0  0  0  0  0  0  0
   40.0214   -5.3342   42.9887 C   0  0  0  0  0  0  0  0  0  0  0  0
   40.4208   -6.2475   43.9892 C   0  0  0  0  0  0  0  0  0  0  0  0
   41.3807   -5.5927   44.6538 C   0  0  0  0  0  0  0  0  0  0  0  0
   41.5978   -4.3404   44.1621 N   0  0  0  0  0  0  0  0  0  0  0  0
   40.7289   -4.2359   43.1317 N   0  0  0  0  0  0  0  0  0  0  0  0
   42.4449   -3.2253   44.6216 C   0  0  0  0  0  0  0  0  0  0  0  0
   43.9602   -3.2067   44.3420 C   0  0  2  0  0  0  0  0  0  0  0  0
   44.2177   -2.9526   42.8409 C   0  0  0  0  0  0  0  0  0  0  0  0
   44.6346   -1.5395   42.5147 N   0  3  0  0  0  0  0  0  0  0  0  0
   45.8964   -1.0956   43.2185 C   0  0  0  0  0  0  0  0  0  0  0  0
   47.1401   -1.7833   42.6185 C   0  0  0  0  0  0  0  0  0  0  0  0
   47.2221   -1.5051   41.1061 C   0  0  0  0  0  0  0  0  0  0  0  0
   45.9446   -2.0156   40.4138 C   0  0  0  0  0  0  0  0  0  0  0  0
   44.7069   -1.3255   41.0226 C   0  0  0  0  0  0  0  0  0  0  0  0
   44.5320   -4.4653   44.7306 O   0  0  0  0  0  0  0  0  0  0  0  0
   42.1085   -6.2167   45.8382 C   0  0  0  0  0  0  0  0  0  0  0  0
   41.8918   -7.7435   45.9512 C   0  0  0  0  0  0  0  0  0  0  0  0
   40.5154   -8.1360   45.5934 N   0  0  0  0  0  0  0  0  0  0  0  0
   39.9386   -7.6528   44.3236 C   0  0  0  0  0  0  0  0  0  0  0  0
   39.7852   -8.9340   46.3939 C   0  0  0  0  0  0  0  0  0  0  0  0
   38.6248   -9.2621   46.1864 O   0  0  0  0  0  0  0  0  0  0  0  0
   40.3772   -9.4811   47.6363 C   0  0  0  0  0  0  0  0  0  0  0  0
   40.5779   -8.7419   48.5893 O   0  0  0  0  0  0  0  0  0  0  0  0
   40.6388  -10.7941   47.6160 N   0  0  0  0  0  0  0  0  0  0  0  0
   38.6101   -7.8626   38.7369 S   0  0  0  0  0  0  0  0  0  0  0  0
   40.3795   -8.2097   38.9051 C   0  0  0  0  0  0  0  0  0  0  0  0
   41.0718   -8.1227   37.5285 C   0  0  0  0  0  0  0  0  0  0  0  0
   42.4982   -8.6079   37.5490 N   0  3  0  0  0  0  0  0  0  0  0  0
   42.6648   -9.9736   36.9568 C   0  0  0  0  0  0  0  0  0  0  0  0
   42.9578   -9.6786   35.4769 C   0  0  0  0  0  0  0  0  0  0  0  0
   43.5759   -8.2644   35.4378 C   0  0  0  0  0  0  0  0  0  0  0  0
   43.4890   -7.7075   36.8712 C   0  0  0  0  0  0  0  0  0  0  0  0
   36.0223   -5.9479   38.8626 C   0  0  0  0  0  0  0  0  0  0  0  0
   36.5259   -5.6752   37.5956 F   0  0  0  0  0  0  0  0  0  0  0  0
   34.9489   -5.0842   39.0624 F   0  0  0  0  0  0  0  0  0  0  0  0
   35.5046   -7.2378   38.8368 F   0  0  0  0  0  0  0  0  0  0  0  0
   44.3851   -2.4715   44.8701 H   0  0  0  0  0  0  0  0  0  0  0  0
   37.7028   -4.0280   42.6271 H   0  0  0  0  0  0  0  0  0  0  0  0
   36.1085   -4.3205   40.9116 H   0  0  0  0  0  0  0  0  0  0  0  0
   40.0165   -7.0031   40.9766 H   0  0  0  0  0  0  0  0  0  0  0  0
   42.3369   -3.1762   45.6146 H   0  0  0  0  0  0  0  0  0  0  0  0
   42.1137   -2.4590   44.0711 H   0  0  0  0  0  0  0  0  0  0  0  0
   43.3781   -3.1584   42.3381 H   0  0  0  0  0  0  0  0  0  0  0  0
   44.9798   -3.5436   42.5764 H   0  0  0  0  0  0  0  0  0  0  0  0
   43.9663   -0.9975   42.8174 H   0  0  0  0  0  0  0  0  0  0  0  0
   45.8290   -1.3268   44.1891 H   0  0  0  0  0  0  0  0  0  0  0  0
   45.9942   -0.1075   43.1005 H   0  0  0  0  0  0  0  0  0  0  0  0
   47.0812   -2.7695   42.7730 H   0  0  0  0  0  0  0  0  0  0  0  0
   47.9598   -1.4200   43.0613 H   0  0  0  0  0  0  0  0  0  0  0  0
   48.0196   -1.9717   40.7236 H   0  0  0  0  0  0  0  0  0  0  0  0
   47.3080   -0.5203   40.9551 H   0  0  0  0  0  0  0  0  0  0  0  0
   45.8708   -3.0050   40.5385 H   0  0  0  0  0  0  0  0  0  0  0  0
   45.9918   -1.8034   39.4377 H   0  0  0  0  0  0  0  0  0  0  0  0
   44.7534   -0.3444   40.8350 H   0  0  0  0  0  0  0  0  0  0  0  0
   43.8897   -1.7254   40.6076 H   0  0  0  0  0  0  0  0  0  0  0  0
   45.2648   -4.7494   44.1040 H   0  0  0  0  0  0  0  0  0  0  0  0
   41.7812   -5.7838   46.6781 H   0  0  0  0  0  0  0  0  0  0  0  0
   43.0872   -6.0667   45.6976 H   0  0  0  0  0  0  0  0  0  0  0  0
   42.0769   -8.0282   46.8918 H   0  0  0  0  0  0  0  0  0  0  0  0
   42.5151   -8.1913   45.3102 H   0  0  0  0  0  0  0  0  0  0  0  0
   40.2051   -8.2732   43.5860 H   0  0  0  0  0  0  0  0  0  0  0  0
   38.9439   -7.6272   44.4225 H   0  0  0  0  0  0  0  0  0  0  0  0
   40.4667  -11.2658   46.8931 H   0  0  0  0  0  0  0  0  0  0  0  0
   40.9821  -11.1856   48.3253 H   0  0  0  0  0  0  0  0  0  0  0  0
   40.5034   -9.1273   39.2828 H   0  0  0  0  0  0  0  0  0  0  0  0
   40.7881   -7.5335   39.5182 H   0  0  0  0  0  0  0  0  0  0  0  0
   41.0622   -7.1696   37.2261 H   0  0  0  0  0  0  0  0  0  0  0  0
   40.5662   -8.7179   36.9040 H   0  0  0  0  0  0  0  0  0  0  0  0
   42.7546   -8.6773   38.4215 H   0  0  0  0  0  0  0  0  0  0  0  0
   41.8305  -10.5155   37.0593 H   0  0  0  0  0  0  0  0  0  0  0  0
   43.3839  -10.5091   37.3997 H   0  0  0  0  0  0  0  0  0  0  0  0
   42.1135   -9.7063   34.9418 H   0  0  0  0  0  0  0  0  0  0  0  0
   43.5773  -10.3583   35.0841 H   0  0  0  0  0  0  0  0  0  0  0  0
   43.0660   -7.6804   34.8062 H   0  0  0  0  0  0  0  0  0  0  0  0
   44.5236   -8.2934   35.1199 H   0  0  0  0  0  0  0  0  0  0  0  0
   44.3786   -7.7483   37.3261 H   0  0  0  0  0  0  0  0  0  0  0  0
   43.2150   -6.7460   36.8942 H   0  0  0  0  0  0  0  0  0  0  0  0
  1  2  2  0  0  0  0
  1  6  1  0  0  0  0
  1 44  1  0  0  0  0
  2  3  1  0  0  0  0
  2 45  1  0  0  0  0
  3  4  2  0  0  0  0
  3 39  1  0  0  0  0
  4  5  1  0  0  0  0
  4 31  1  0  0  0  0
  5  6  2  0  0  0  0
  5 46  1  0  0  0  0
  6  7  1  0  0  0  0
  7  8  1  0  0  0  0
  7 11  2  0  0  0  0
  8  9  2  0  0  0  0
  8 25  1  0  0  0  0
  9 10  1  0  0  0  0
  9 22  1  0  0  0  0
 10 11  1  0  0  0  0
 10 12  1  0  0  0  0
 12 13  1  0  0  0  0
 12 47  1  0  0  0  0
 12 48  1  0  0  0  0
 13 14  1  0  0  0  0
 13 21  1  0  0  0  0
 13 43  1  1  0  0  0
 14 15  1  0  0  0  0
 14 49  1  0  0  0  0
 14 50  1  0  0  0  0
 15 16  1  0  0  0  0
 15 20  1  0  0  0  0
 15 51  1  0  0  0  0
 16 17  1  0  0  0  0
 16 52  1  0  0  0  0
 16 53  1  0  0  0  0
 17 18  1  0  0  0  0
 17 54  1  0  0  0  0
 17 55  1  0  0  0  0
 18 19  1  0  0  0  0
 18 56  1  0  0  0  0
 18 57  1  0  0  0  0
 19 20  1  0  0  0  0
 19 58  1  0  0  0  0
 19 59  1  0  0  0  0
 20 60  1  0  0  0  0
 20 61  1  0  0  0  0
 21 62  1  0  0  0  0
 22 23  1  0  0  0  0
 22 63  1  0  0  0  0
 22 64  1  0  0  0  0
 23 24  1  0  0  0  0
 23 65  1  0  0  0  0
 23 66  1  0  0  0  0
 24 25  1  0  0  0  0
 24 26  1  0  0  0  0
 25 67  1  0  0  0  0
 25 68  1  0  0  0  0
 26 27  2  0  0  0  0
 26 28  1  0  0  0  0
 28 29  2  0  0  0  0
 28 30  1  0  0  0  0
 30 69  1  0  0  0  0
 30 70  1  0  0  0  0
 31 32  1  0  0  0  0
 32 33  1  0  0  0  0
 32 71  1  0  0  0  0
 32 72  1  0  0  0  0
 33 34  1  0  0  0  0
 33 73  1  0  0  0  0
 33 74  1  0  0  0  0
 34 35  1  0  0  0  0
 34 38  1  0  0  0  0
 34 75  1  0  0  0  0
 35 36  1  0  0  0  0
 35 76  1  0  0  0  0
 35 77  1  0  0  0  0
 36 37  1  0  0  0  0
 36 78  1  0  0  0  0
 36 79  1  0  0  0  0
 37 38  1  0  0  0  0
 37 80  1  0  0  0  0
 37 81  1  0  0  0  0
 38 82  1  0  0  0  0
 38 83  1  0  0  0  0
 39 40  1  0  0  0  0
 39 41  1  0  0  0  0
 39 42  1  0  0  0  0
M  CHG  2  15   1  34   1
M  END
