CatS_232:1_D
 OpenBabel12041818463D

 95100  0  0  1  0  0  0  0  0999 V2000
   40.3624  -10.5814   46.0803 C   0  0  0  0  0  0  0  0  0  0  0  0
   39.8221   -9.0891   46.9606 S   0  0  0  0  0  0  0  0  0  0  0  0
   38.3985   -9.0136   46.8620 O   0  0  0  0  0  0  0  0  0  0  0  0
   40.3459   -9.1270   48.2867 O   0  0  0  0  0  0  0  0  0  0  0  0
   40.4366   -7.7700   46.2135 N   0  0  0  0  0  0  0  0  0  0  0  0
   41.9088   -7.6870   46.3163 C   0  0  0  0  0  0  0  0  0  0  0  0
   42.4780   -6.2868   45.9796 C   0  0  0  0  0  0  0  0  0  0  0  0
   41.7534   -5.6335   44.8147 C   0  0  0  0  0  0  0  0  0  0  0  0
   40.6590   -6.1895   44.2882 C   0  0  0  0  0  0  0  0  0  0  0  0
   40.3142   -5.3012   43.2452 C   0  0  0  0  0  0  0  0  0  0  0  0
   41.1727   -4.3040   43.2419 N   0  0  0  0  0  0  0  0  0  0  0  0
   42.1062   -4.4678   44.2049 N   0  0  0  0  0  0  0  0  0  0  0  0
   43.1647   -3.4856   44.4907 C   0  0  0  0  0  0  0  0  0  0  0  0
   42.7570   -2.1334   45.1054 C   0  0  2  0  0  0  0  0  0  0  0  0
   43.4653   -1.9233   46.4632 C   0  0  0  0  0  0  0  0  0  0  0  0
   42.8423   -2.6988   47.5975 N   0  3  2  0  0  0  0  0  0  0  0  0
   42.1180   -1.7950   48.5678 C   0  0  0  0  0  0  0  0  0  0  0  0
   41.8456   -2.4795   49.9277 C   0  0  0  0  0  0  0  0  0  0  0  0
   41.6992   -4.0090   49.7721 C   0  0  1  0  0  0  0  0  0  0  0  0
   43.0214   -4.6097   49.2314 C   0  0  0  0  0  0  0  0  0  0  0  0
   43.7887   -3.6432   48.2950 C   0  0  0  0  0  0  0  0  0  0  0  0
   41.2459   -4.7717   50.9527 N   0  0  0  0  0  0  0  0  0  0  0  0
   41.3120   -4.2067   52.3064 C   0  0  0  0  0  0  0  0  0  0  0  0
   40.3534   -5.1665   53.0329 C   0  0  1  0  0  0  0  0  0  0  0  0
   40.4254   -6.4923   52.2605 C   0  0  0  0  0  0  0  0  0  0  0  0
   40.7682   -6.0229   50.8727 C   0  0  0  0  0  0  0  0  0  0  0  0
   40.6141   -6.6949   49.8628 O   0  0  0  0  0  0  0  0  0  0  0  0
   40.7080   -5.3336   54.4130 O   0  0  0  0  0  0  0  0  0  0  0  0
   41.3308   -2.1004   45.2692 O   0  0  0  0  0  0  0  0  0  0  0  0
   39.2122   -5.3838   42.3065 C   0  0  0  0  0  0  0  0  0  0  0  0
   38.2133   -4.4300   42.2582 C   0  0  0  0  0  0  0  0  0  0  0  0
   37.1729   -4.5581   41.3675 C   0  0  0  0  0  0  0  0  0  0  0  0
   37.0915   -5.6310   40.5012 C   0  0  0  0  0  0  0  0  0  0  0  0
   38.0956   -6.5895   40.5603 C   0  0  0  0  0  0  0  0  0  0  0  0
   39.1385   -6.4633   41.4482 C   0  0  0  0  0  0  0  0  0  0  0  0
   38.1071   -8.0271   39.4766 S   0  0  0  0  0  0  0  0  0  0  0  0
   39.2431   -7.7428   38.0867 C   0  0  0  0  0  0  0  0  0  0  0  0
   40.4887   -8.6448   38.1986 C   0  0  0  0  0  0  0  0  0  0  0  0
   41.4500   -8.5264   37.0462 N   0  3  1  0  0  0  0  0  0  0  0  0
   42.5380   -7.5066   37.2313 C   0  0  0  0  0  0  0  0  0  0  0  0
   43.5917   -7.9355   36.1985 C   0  0  0  0  0  0  0  0  0  0  0  0
   43.4743   -9.4695   36.1151 C   0  0  1  0  0  0  0  0  0  0  0  0
   42.0924   -9.8389   36.6897 C   0  0  0  0  0  0  0  0  0  0  0  0
   43.5731   -9.8862   34.7912 F   0  0  0  0  0  0  0  0  0  0  0  0
   35.8992   -5.6704   39.5441 C   0  0  0  0  0  0  0  0  0  0  0  0
   35.2263   -6.8837   39.6357 F   0  0  0  0  0  0  0  0  0  0  0  0
   34.9577   -4.6724   39.7812 F   0  0  0  0  0  0  0  0  0  0  0  0
   36.3095   -5.5230   38.2232 F   0  0  0  0  0  0  0  0  0  0  0  0
   40.0446   -7.4843   44.8118 C   0  0  0  0  0  0  0  0  0  0  0  0
   43.0354   -1.3926   44.4938 H   0  0  0  0  0  0  0  0  0  0  0  0
   39.4212   -4.8047   53.0461 H   0  0  0  0  0  0  0  0  0  0  0  0
   44.2073   -9.9160   36.6282 H   0  0  0  0  0  0  0  0  0  0  0  0
   40.9339  -10.3130   45.3048 H   0  0  0  0  0  0  0  0  0  0  0  0
   40.8868  -11.1670   46.6984 H   0  0  0  0  0  0  0  0  0  0  0  0
   39.5640  -11.0866   45.7526 H   0  0  0  0  0  0  0  0  0  0  0  0
   42.3088   -8.3530   45.6867 H   0  0  0  0  0  0  0  0  0  0  0  0
   42.1462   -7.8762   47.2691 H   0  0  0  0  0  0  0  0  0  0  0  0
   43.4464   -6.3792   45.7478 H   0  0  0  0  0  0  0  0  0  0  0  0
   42.3506   -5.7043   46.7823 H   0  0  0  0  0  0  0  0  0  0  0  0
   43.6328   -3.2929   43.6284 H   0  0  0  0  0  0  0  0  0  0  0  0
   43.7206   -3.9203   45.1993 H   0  0  0  0  0  0  0  0  0  0  0  0
   43.4357   -0.9496   46.6892 H   0  0  0  0  0  0  0  0  0  0  0  0
   44.4014   -2.2598   46.3599 H   0  0  0  0  0  0  0  0  0  0  0  0
   42.2012   -3.2248   47.2215 H   0  0  0  0  0  0  0  0  0  0  0  0
   41.2452   -1.5222   48.1632 H   0  0  0  0  0  0  0  0  0  0  0  0
   42.7048   -1.0039   48.7405 H   0  0  0  0  0  0  0  0  0  0  0  0
   41.0029   -2.1078   50.3171 H   0  0  0  0  0  0  0  0  0  0  0  0
   42.6231   -2.2997   50.5304 H   0  0  0  0  0  0  0  0  0  0  0  0
   40.9449   -4.1106   49.1235 H   0  0  0  0  0  0  0  0  0  0  0  0
   42.8096   -5.4459   48.7254 H   0  0  0  0  0  0  0  0  0  0  0  0
   43.6107   -4.7911   50.0187 H   0  0  0  0  0  0  0  0  0  0  0  0
   44.4434   -3.1132   48.8339 H   0  0  0  0  0  0  0  0  0  0  0  0
   44.2650   -4.1849   47.6024 H   0  0  0  0  0  0  0  0  0  0  0  0
   40.9883   -3.2610   52.3335 H   0  0  0  0  0  0  0  0  0  0  0  0
   42.2304   -4.1487   52.6978 H   0  0  0  0  0  0  0  0  0  0  0  0
   39.5494   -6.9742   52.2787 H   0  0  0  0  0  0  0  0  0  0  0  0
   41.0808   -7.1459   52.6390 H   0  0  0  0  0  0  0  0  0  0  0  0
   41.6308   -5.7226   54.5090 H   0  0  0  0  0  0  0  0  0  0  0  0
   40.8645   -1.8573   44.4126 H   0  0  0  0  0  0  0  0  0  0  0  0
   38.2470   -3.6427   42.8737 H   0  0  0  0  0  0  0  0  0  0  0  0
   36.4588   -3.8583   41.3467 H   0  0  0  0  0  0  0  0  0  0  0  0
   39.8530   -7.1625   41.4726 H   0  0  0  0  0  0  0  0  0  0  0  0
   39.5290   -6.7845   38.0867 H   0  0  0  0  0  0  0  0  0  0  0  0
   38.7667   -7.9632   37.2355 H   0  0  0  0  0  0  0  0  0  0  0  0
   40.1835   -9.5953   38.2576 H   0  0  0  0  0  0  0  0  0  0  0  0
   40.9848   -8.3449   39.0133 H   0  0  0  0  0  0  0  0  0  0  0  0
   40.9682   -8.2664   36.3179 H   0  0  0  0  0  0  0  0  0  0  0  0
   42.9075   -7.5372   38.1600 H   0  0  0  0  0  0  0  0  0  0  0  0
   42.2227   -6.5661   37.1044 H   0  0  0  0  0  0  0  0  0  0  0  0
   44.5075   -7.6669   36.4972 H   0  0  0  0  0  0  0  0  0  0  0  0
   43.4426   -7.5012   35.3101 H   0  0  0  0  0  0  0  0  0  0  0  0
   41.5452  -10.3255   36.0087 H   0  0  0  0  0  0  0  0  0  0  0  0
   42.1679  -10.4453   37.4812 H   0  0  0  0  0  0  0  0  0  0  0  0
   39.0483   -7.4123   44.7638 H   0  0  0  0  0  0  0  0  0  0  0  0
   40.3832   -8.2332   44.2421 H   0  0  0  0  0  0  0  0  0  0  0  0
  1  2  1  0  0  0  0
  1 53  1  0  0  0  0
  1 54  1  0  0  0  0
  1 55  1  0  0  0  0
  2  3  2  0  0  0  0
  2  4  2  0  0  0  0
  2  5  1  0  0  0  0
  5  6  1  0  0  0  0
  5 49  1  0  0  0  0
  6  7  1  0  0  0  0
  6 56  1  0  0  0  0
  6 57  1  0  0  0  0
  7  8  1  0  0  0  0
  7 58  1  0  0  0  0
  7 59  1  0  0  0  0
  8  9  2  0  0  0  0
  8 12  1  0  0  0  0
  9 10  1  0  0  0  0
  9 49  1  0  0  0  0
 10 11  2  0  0  0  0
 10 30  1  0  0  0  0
 11 12  1  0  0  0  0
 12 13  1  0  0  0  0
 13 14  1  0  0  0  0
 13 60  1  0  0  0  0
 13 61  1  0  0  0  0
 14 15  1  0  0  0  0
 14 29  1  0  0  0  0
 14 50  1  6  0  0  0
 15 16  1  0  0  0  0
 15 62  1  0  0  0  0
 15 63  1  0  0  0  0
 16 17  1  0  0  0  0
 16 21  1  0  0  0  0
 16 64  1  6  0  0  0
 17 18  1  0  0  0  0
 17 65  1  0  0  0  0
 17 66  1  0  0  0  0
 18 19  1  0  0  0  0
 18 67  1  0  0  0  0
 18 68  1  0  0  0  0
 19 20  1  0  0  0  0
 19 22  1  0  0  0  0
 19 69  1  6  0  0  0
 20 21  1  0  0  0  0
 20 70  1  0  0  0  0
 20 71  1  0  0  0  0
 21 72  1  0  0  0  0
 21 73  1  0  0  0  0
 22 23  1  0  0  0  0
 22 26  1  0  0  0  0
 23 24  1  0  0  0  0
 23 74  1  0  0  0  0
 23 75  1  0  0  0  0
 24 25  1  0  0  0  0
 24 28  1  0  0  0  0
 24 51  1  6  0  0  0
 25 26  1  0  0  0  0
 25 76  1  0  0  0  0
 25 77  1  0  0  0  0
 26 27  2  0  0  0  0
 28 78  1  0  0  0  0
 29 79  1  0  0  0  0
 30 31  2  0  0  0  0
 30 35  1  0  0  0  0
 31 32  1  0  0  0  0
 31 80  1  0  0  0  0
 32 33  2  0  0  0  0
 32 81  1  0  0  0  0
 33 34  1  0  0  0  0
 33 45  1  0  0  0  0
 34 35  2  0  0  0  0
 34 36  1  0  0  0  0
 35 82  1  0  0  0  0
 36 37  1  0  0  0  0
 37 38  1  0  0  0  0
 37 83  1  0  0  0  0
 37 84  1  0  0  0  0
 38 39  1  0  0  0  0
 38 85  1  0  0  0  0
 38 86  1  0  0  0  0
 39 40  1  0  0  0  0
 39 43  1  0  0  0  0
 39 87  1  6  0  0  0
 40 41  1  0  0  0  0
 40 88  1  0  0  0  0
 40 89  1  0  0  0  0
 41 42  1  0  0  0  0
 41 90  1  0  0  0  0
 41 91  1  0  0  0  0
 42 43  1  0  0  0  0
 42 44  1  0  0  0  0
 42 52  1  1  0  0  0
 43 92  1  0  0  0  0
 43 93  1  0  0  0  0
 45 46  1  0  0  0  0
 45 47  1  0  0  0  0
 45 48  1  0  0  0  0
 49 94  1  0  0  0  0
 49 95  1  0  0  0  0
M  CHG  2  16   1  39   1
M  END
