CatS_113:1_D
 OpenBabel12041818463D

 95100  0  0  1  0  0  0  0  0999 V2000
   40.9602  -11.4568   45.4902 C   0  0  0  0  0  0  0  0  0  0  0  0
   39.7366  -10.1610   45.8583 S   0  0  0  0  0  0  0  0  0  0  0  0
   38.5533  -10.4148   45.1132 O   0  0  0  0  0  0  0  0  0  0  0  0
   39.4770  -10.1624   47.2555 O   0  0  0  0  0  0  0  0  0  0  0  0
   40.3099   -8.6822   45.4544 N   0  0  0  0  0  0  0  0  0  0  0  0
   40.7664   -7.8814   46.6137 C   0  0  0  0  0  0  0  0  0  0  0  0
   41.6628   -6.6850   46.2133 C   0  0  0  0  0  0  0  0  0  0  0  0
   41.1063   -5.9608   45.0018 C   0  0  0  0  0  0  0  0  0  0  0  0
   40.1236   -6.4807   44.2617 C   0  0  0  0  0  0  0  0  0  0  0  0
   39.9255   -5.5091   43.2523 C   0  0  0  0  0  0  0  0  0  0  0  0
   40.7759   -4.5267   43.4480 N   0  0  0  0  0  0  0  0  0  0  0  0
   41.5351   -4.7583   44.5405 N   0  0  0  0  0  0  0  0  0  0  0  0
   42.5550   -3.8369   45.0601 C   0  0  0  0  0  0  0  0  0  0  0  0
   43.3790   -3.2747   43.8891 C   0  0  1  0  0  0  0  0  0  0  0  0
   44.6755   -2.6277   44.4146 C   0  0  0  0  0  0  0  0  0  0  0  0
   44.8741   -1.2065   43.9490 N   0  3  2  0  0  0  0  0  0  0  0  0
   46.0595   -1.0891   43.0246 C   0  0  0  0  0  0  0  0  0  0  0  0
   46.1929    0.3449   42.4726 C   0  0  0  0  0  0  0  0  0  0  0  0
   46.3264    1.3614   43.6266 C   0  0  2  0  0  0  0  0  0  0  0  0
   45.0889    1.2353   44.5456 C   0  0  0  0  0  0  0  0  0  0  0  0
   44.9364   -0.2041   45.0768 C   0  0  0  0  0  0  0  0  0  0  0  0
   46.6402    2.7541   43.0874 C   0  0  0  0  0  0  0  0  0  0  0  0
   47.8400    3.0009   42.4570 C   0  0  0  0  0  0  0  0  0  0  0  0
   48.1059    4.2535   41.9731 C   0  0  0  0  0  0  0  0  0  0  0  0
   47.1622    5.2307   42.1344 C   0  0  0  0  0  0  0  0  0  0  0  0
   45.9859    4.9214   42.7717 C   0  0  0  0  0  0  0  0  0  0  0  0
   45.6924    3.6989   43.2568 N   0  0  0  0  0  0  0  0  0  0  0  0
   43.6618   -4.3186   42.9447 O   0  0  0  0  0  0  0  0  0  0  0  0
   38.9943   -5.5025   42.1402 C   0  0  0  0  0  0  0  0  0  0  0  0
   37.9052   -4.6499   42.0675 C   0  0  0  0  0  0  0  0  0  0  0  0
   37.0651   -4.6877   40.9775 C   0  0  0  0  0  0  0  0  0  0  0  0
   37.2771   -5.5690   39.9351 C   0  0  0  0  0  0  0  0  0  0  0  0
   38.3692   -6.4208   40.0191 C   0  0  0  0  0  0  0  0  0  0  0  0
   39.2164   -6.3809   41.1002 C   0  0  0  0  0  0  0  0  0  0  0  0
   38.7321   -7.6339   38.7436 S   0  0  0  0  0  0  0  0  0  0  0  0
   40.4608   -8.1297   38.9905 C   0  0  0  0  0  0  0  0  0  0  0  0
   41.0974   -8.7497   37.7283 C   0  0  0  0  0  0  0  0  0  0  0  0
   40.8884  -10.2334   37.5478 N   0  3  1  0  0  0  0  0  0  0  0  0
   39.8730  -10.5944   36.4900 C   0  0  0  0  0  0  0  0  0  0  0  0
   39.5653  -12.1138   36.4677 C   0  0  0  0  0  0  0  0  0  0  0  0
   40.6821  -12.9554   37.1245 C   0  0  2  0  0  0  0  0  0  0  0  0
   42.0634  -12.3697   36.7856 C   0  0  0  0  0  0  0  0  0  0  0  0
   42.2094  -10.9473   37.3741 C   0  0  0  0  0  0  0  0  0  0  0  0
   40.6113  -14.2668   36.6672 F   0  0  0  0  0  0  0  0  0  0  0  0
   36.2915   -5.5469   38.7684 C   0  0  0  0  0  0  0  0  0  0  0  0
   35.1188   -4.8899   39.1239 F   0  0  0  0  0  0  0  0  0  0  0  0
   36.8305   -4.8681   37.6815 F   0  0  0  0  0  0  0  0  0  0  0  0
   35.9245   -6.8118   38.3171 F   0  0  0  0  0  0  0  0  0  0  0  0
   39.4744   -7.8241   44.5812 C   0  0  0  0  0  0  0  0  0  0  0  0
   42.8501   -2.5666   43.4212 H   0  0  0  0  0  0  0  0  0  0  0  0
   41.7776  -11.0318   45.1012 H   0  0  0  0  0  0  0  0  0  0  0  0
   41.2008  -11.9428   46.3304 H   0  0  0  0  0  0  0  0  0  0  0  0
   40.5746  -12.1081   44.8366 H   0  0  0  0  0  0  0  0  0  0  0  0
   41.2829   -8.4767   47.2292 H   0  0  0  0  0  0  0  0  0  0  0  0
   39.9513   -7.5058   47.0546 H   0  0  0  0  0  0  0  0  0  0  0  0
   42.5810   -7.0203   46.0022 H   0  0  0  0  0  0  0  0  0  0  0  0
   41.6911   -6.0420   46.9786 H   0  0  0  0  0  0  0  0  0  0  0  0
   43.1576   -4.3252   45.6913 H   0  0  0  0  0  0  0  0  0  0  0  0
   42.1095   -3.0845   45.5452 H   0  0  0  0  0  0  0  0  0  0  0  0
   45.4522   -3.1759   44.1045 H   0  0  0  0  0  0  0  0  0  0  0  0
   44.6058   -2.6007   45.4118 H   0  0  0  0  0  0  0  0  0  0  0  0
   44.1408   -0.9936   43.4515 H   0  0  0  0  0  0  0  0  0  0  0  0
   45.9454   -1.7260   42.2622 H   0  0  0  0  0  0  0  0  0  0  0  0
   46.8876   -1.3079   43.5407 H   0  0  0  0  0  0  0  0  0  0  0  0
   45.3834    0.5659   41.9287 H   0  0  0  0  0  0  0  0  0  0  0  0
   47.0135    0.3959   41.9034 H   0  0  0  0  0  0  0  0  0  0  0  0
   47.1126    1.1622   44.2116 H   0  0  0  0  0  0  0  0  0  0  0  0
   44.2697    1.4838   44.0286 H   0  0  0  0  0  0  0  0  0  0  0  0
   45.2088    1.8494   45.3256 H   0  0  0  0  0  0  0  0  0  0  0  0
   45.7166   -0.4210   45.6635 H   0  0  0  0  0  0  0  0  0  0  0  0
   44.0812   -0.2581   45.5920 H   0  0  0  0  0  0  0  0  0  0  0  0
   48.5132    2.2687   42.3535 H   0  0  0  0  0  0  0  0  0  0  0  0
   48.9712    4.4499   41.5117 H   0  0  0  0  0  0  0  0  0  0  0  0
   47.3265    6.1564   41.7933 H   0  0  0  0  0  0  0  0  0  0  0  0
   45.3065    5.6467   42.8825 H   0  0  0  0  0  0  0  0  0  0  0  0
   44.6345   -4.3309   42.6893 H   0  0  0  0  0  0  0  0  0  0  0  0
   37.7282   -4.0040   42.8102 H   0  0  0  0  0  0  0  0  0  0  0  0
   36.2846   -4.0637   40.9394 H   0  0  0  0  0  0  0  0  0  0  0  0
   40.0037   -6.9964   41.1334 H   0  0  0  0  0  0  0  0  0  0  0  0
   40.4987   -8.7999   39.7316 H   0  0  0  0  0  0  0  0  0  0  0  0
   40.9799   -7.3036   39.2103 H   0  0  0  0  0  0  0  0  0  0  0  0
   42.0819   -8.5783   37.7640 H   0  0  0  0  0  0  0  0  0  0  0  0
   40.6388   -8.3162   36.9526 H   0  0  0  0  0  0  0  0  0  0  0  0
   40.5311  -10.5301   38.3322 H   0  0  0  0  0  0  0  0  0  0  0  0
   40.2270  -10.3219   35.5954 H   0  0  0  0  0  0  0  0  0  0  0  0
   39.0227  -10.1135   36.7042 H   0  0  0  0  0  0  0  0  0  0  0  0
   39.4570  -12.4063   35.5175 H   0  0  0  0  0  0  0  0  0  0  0  0
   38.7276  -12.2609   36.9937 H   0  0  0  0  0  0  0  0  0  0  0  0
   40.5556  -12.9375   38.1163 H   0  0  0  0  0  0  0  0  0  0  0  0
   42.1706  -12.3299   35.7922 H   0  0  0  0  0  0  0  0  0  0  0  0
   42.7689  -12.9562   37.1834 H   0  0  0  0  0  0  0  0  0  0  0  0
   42.6552  -11.0146   38.2666 H   0  0  0  0  0  0  0  0  0  0  0  0
   42.7509  -10.4137   36.7243 H   0  0  0  0  0  0  0  0  0  0  0  0
   38.6010   -7.6571   45.0387 H   0  0  0  0  0  0  0  0  0  0  0  0
   39.3546   -8.3087   43.7149 H   0  0  0  0  0  0  0  0  0  0  0  0
  1  2  1  0  0  0  0
  1 51  1  0  0  0  0
  1 52  1  0  0  0  0
  1 53  1  0  0  0  0
  2  3  2  0  0  0  0
  2  4  2  0  0  0  0
  2  5  1  0  0  0  0
  5  6  1  0  0  0  0
  5 49  1  0  0  0  0
  6  7  1  0  0  0  0
  6 54  1  0  0  0  0
  6 55  1  0  0  0  0
  7  8  1  0  0  0  0
  7 56  1  0  0  0  0
  7 57  1  0  0  0  0
  8  9  2  0  0  0  0
  8 12  1  0  0  0  0
  9 10  1  0  0  0  0
  9 49  1  0  0  0  0
 10 11  2  0  0  0  0
 10 29  1  0  0  0  0
 11 12  1  0  0  0  0
 12 13  1  0  0  0  0
 13 14  1  0  0  0  0
 13 58  1  0  0  0  0
 13 59  1  0  0  0  0
 14 15  1  0  0  0  0
 14 28  1  0  0  0  0
 14 50  1  6  0  0  0
 15 16  1  0  0  0  0
 15 60  1  0  0  0  0
 15 61  1  0  0  0  0
 16 17  1  0  0  0  0
 16 21  1  0  0  0  0
 16 62  1  6  0  0  0
 17 18  1  0  0  0  0
 17 63  1  0  0  0  0
 17 64  1  0  0  0  0
 18 19  1  0  0  0  0
 18 65  1  0  0  0  0
 18 66  1  0  0  0  0
 19 20  1  0  0  0  0
 19 22  1  0  0  0  0
 19 67  1  1  0  0  0
 20 21  1  0  0  0  0
 20 68  1  0  0  0  0
 20 69  1  0  0  0  0
 21 70  1  0  0  0  0
 21 71  1  0  0  0  0
 22 23  2  0  0  0  0
 22 27  1  0  0  0  0
 23 24  1  0  0  0  0
 23 72  1  0  0  0  0
 24 25  2  0  0  0  0
 24 73  1  0  0  0  0
 25 26  1  0  0  0  0
 25 74  1  0  0  0  0
 26 27  2  0  0  0  0
 26 75  1  0  0  0  0
 28 76  1  0  0  0  0
 29 30  2  0  0  0  0
 29 34  1  0  0  0  0
 30 31  1  0  0  0  0
 30 77  1  0  0  0  0
 31 32  2  0  0  0  0
 31 78  1  0  0  0  0
 32 33  1  0  0  0  0
 32 45  1  0  0  0  0
 33 34  2  0  0  0  0
 33 35  1  0  0  0  0
 34 79  1  0  0  0  0
 35 36  1  0  0  0  0
 36 37  1  0  0  0  0
 36 80  1  0  0  0  0
 36 81  1  0  0  0  0
 37 38  1  0  0  0  0
 37 82  1  0  0  0  0
 37 83  1  0  0  0  0
 38 39  1  0  0  0  0
 38 43  1  0  0  0  0
 38 84  1  1  0  0  0
 39 40  1  0  0  0  0
 39 85  1  0  0  0  0
 39 86  1  0  0  0  0
 40 41  1  0  0  0  0
 40 87  1  0  0  0  0
 40 88  1  0  0  0  0
 41 42  1  0  0  0  0
 41 44  1  0  0  0  0
 41 89  1  1  0  0  0
 42 43  1  0  0  0  0
 42 90  1  0  0  0  0
 42 91  1  0  0  0  0
 43 92  1  0  0  0  0
 43 93  1  0  0  0  0
 45 46  1  0  0  0  0
 45 47  1  0  0  0  0
 45 48  1  0  0  0  0
 49 94  1  0  0  0  0
 49 95  1  0  0  0  0
M  CHG  2  16   1  38   1
M  END
