CatS_401:1_D
 OpenBabel12041818463D

 96101  0  0  0  0  0  0  0  0999 V2000
   52.2079   -8.7447   31.2496 C   0  0  0  0  0  0  0  0  0  0  0  0
   51.9758   -9.1487   32.7192 C   0  0  0  0  0  0  0  0  0  0  0  0
   51.9584  -10.6856   32.7718 C   0  0  0  0  0  0  0  0  0  0  0  0
   50.7196   -8.6417   33.2331 O   0  0  0  0  0  0  0  0  0  0  0  0
   50.7036   -7.7484   34.2369 C   0  0  0  0  0  0  0  0  0  0  0  0
   51.5023   -6.6256   34.1238 C   0  0  0  0  0  0  0  0  0  0  0  0
   51.5313   -5.6756   35.1167 C   0  0  0  0  0  0  0  0  0  0  0  0
   50.7554   -5.8258   36.2436 C   0  0  0  0  0  0  0  0  0  0  0  0
   49.9512   -6.9371   36.3666 C   0  0  0  0  0  0  0  0  0  0  0  0
   49.9238   -7.8894   35.3755 C   0  0  0  0  0  0  0  0  0  0  0  0
   50.7776   -4.7697   37.3385 C   0  0  0  0  0  0  0  0  0  0  0  0
   50.5150   -3.3924   36.7868 N   0  3  0  0  0  0  0  0  0  0  0  0
   50.6622   -2.2644   37.7762 C   0  0  0  0  0  0  0  0  0  0  0  0
   49.5647   -2.3097   38.8241 C   0  0  0  0  0  0  0  0  0  0  0  0
   48.2939   -2.7274   38.4848 C   0  0  0  0  0  0  0  0  0  0  0  0
   47.3007   -2.7483   39.4300 C   0  0  0  0  0  0  0  0  0  0  0  0
   47.5754   -2.3512   40.7344 C   0  0  0  0  0  0  0  0  0  0  0  0
   48.8594   -1.9403   41.0742 C   0  0  0  0  0  0  0  0  0  0  0  0
   49.8426   -1.9200   40.1188 C   0  0  0  0  0  0  0  0  0  0  0  0
   46.5264   -2.3595   41.7203 C   0  0  0  0  0  0  0  0  0  0  0  0
   45.6237   -2.3750   42.5402 C   0  0  0  0  0  0  0  0  0  0  0  0
   44.5390   -2.4098   43.4861 C   0  0  0  0  0  0  0  0  0  0  0  0
   43.8324   -3.5815   43.7316 C   0  0  0  0  0  0  0  0  0  0  0  0
   42.7929   -3.5946   44.6396 C   0  0  0  0  0  0  0  0  0  0  0  0
   42.4743   -2.4189   45.3086 C   0  0  0  0  0  0  0  0  0  0  0  0
   43.1712   -1.2548   45.0695 C   0  0  0  0  0  0  0  0  0  0  0  0
   44.1996   -1.2417   44.1606 C   0  0  0  0  0  0  0  0  0  0  0  0
   45.0791    0.2273   43.8535 Cl  0  0  0  0  0  0  0  0  0  0  0  0
   42.0536   -4.8268   44.8662 C   0  0  0  0  0  0  0  0  0  0  0  0
   40.9756   -5.3710   44.1301 C   0  0  0  0  0  0  0  0  0  0  0  0
   40.6940   -6.5054   44.7775 C   0  0  0  0  0  0  0  0  0  0  0  0
   41.5089   -6.7216   45.8429 N   0  0  0  0  0  0  0  0  0  0  0  0
   42.3312   -5.6481   45.8565 N   0  0  0  0  0  0  0  0  0  0  0  0
   41.6394   -7.8707   46.7516 C   0  0  0  0  0  0  0  0  0  0  0  0
   41.6595   -9.2833   46.1279 C   0  0  0  0  0  0  0  0  0  0  0  0
   40.3432  -10.0514   46.3859 C   0  0  0  0  0  0  0  0  0  0  0  0
   40.1200  -11.2274   45.4656 N   0  3  0  0  0  0  0  0  0  0  0  0
   40.5481  -12.5413   46.0755 C   0  0  0  0  0  0  0  0  0  0  0  0
   40.5065  -13.7032   45.0645 C   0  0  0  0  0  0  0  0  0  0  0  0
   38.8187  -13.9497   44.4586 S   0  0  0  0  0  0  0  0  0  0  0  0
   38.5057  -12.2859   43.8196 C   0  0  0  0  0  0  0  0  0  0  0  0
   38.7038  -11.2497   44.9417 C   0  0  0  0  0  0  0  0  0  0  0  0
   39.5737   -7.4203   44.3202 C   0  0  0  0  0  0  0  0  0  0  0  0
   39.3677   -7.3083   42.7958 C   0  0  0  0  0  0  0  0  0  0  0  0
   39.2857   -5.9046   42.3350 N   0  0  0  0  0  0  0  0  0  0  0  0
   40.2335   -4.9003   42.8847 C   0  0  0  0  0  0  0  0  0  0  0  0
   38.3736   -5.5811   41.3829 C   0  0  0  0  0  0  0  0  0  0  0  0
   37.5337   -6.3968   40.9878 O   0  0  0  0  0  0  0  0  0  0  0  0
   38.4015   -4.3407   40.8537 N   0  0  0  0  0  0  0  0  0  0  0  0
   51.3250   -8.6925   30.7830 H   0  0  0  0  0  0  0  0  0  0  0  0
   52.6622   -7.8548   31.2116 H   0  0  0  0  0  0  0  0  0  0  0  0
   52.7872   -9.4254   30.8010 H   0  0  0  0  0  0  0  0  0  0  0  0
   52.7042   -8.7610   33.2842 H   0  0  0  0  0  0  0  0  0  0  0  0
   51.0832  -10.9886   33.1490 H   0  0  0  0  0  0  0  0  0  0  0  0
   52.0745  -11.0565   31.8504 H   0  0  0  0  0  0  0  0  0  0  0  0
   52.7063  -11.0112   33.3502 H   0  0  0  0  0  0  0  0  0  0  0  0
   52.0671   -6.5029   33.3077 H   0  0  0  0  0  0  0  0  0  0  0  0
   52.1185   -4.8719   35.0200 H   0  0  0  0  0  0  0  0  0  0  0  0
   49.3838   -7.0521   37.1819 H   0  0  0  0  0  0  0  0  0  0  0  0
   49.3358   -8.6919   35.4764 H   0  0  0  0  0  0  0  0  0  0  0  0
   51.6739   -4.7788   37.7819 H   0  0  0  0  0  0  0  0  0  0  0  0
   50.0547   -4.9851   37.9949 H   0  0  0  0  0  0  0  0  0  0  0  0
   49.6767   -3.3660   36.4298 H   0  0  0  0  0  0  0  0  0  0  0  0
   51.0590   -3.2533   36.0692 H   0  0  0  0  0  0  0  0  0  0  0  0
   50.6161   -1.3925   37.2889 H   0  0  0  0  0  0  0  0  0  0  0  0
   51.5443   -2.3601   38.2376 H   0  0  0  0  0  0  0  0  0  0  0  0
   48.0969   -3.0154   37.5476 H   0  0  0  0  0  0  0  0  0  0  0  0
   46.3798   -3.0487   39.1817 H   0  0  0  0  0  0  0  0  0  0  0  0
   49.0651   -1.6605   42.0120 H   0  0  0  0  0  0  0  0  0  0  0  0
   50.7657   -1.6214   40.3610 H   0  0  0  0  0  0  0  0  0  0  0  0
   44.0789   -4.4208   43.2469 H   0  0  0  0  0  0  0  0  0  0  0  0
   41.7277   -2.4179   45.9739 H   0  0  0  0  0  0  0  0  0  0  0  0
   42.9273   -0.4176   45.5591 H   0  0  0  0  0  0  0  0  0  0  0  0
   40.8716   -7.8354   47.3913 H   0  0  0  0  0  0  0  0  0  0  0  0
   42.5452   -7.7653   47.1620 H   0  0  0  0  0  0  0  0  0  0  0  0
   42.4198   -9.8004   46.5212 H   0  0  0  0  0  0  0  0  0  0  0  0
   41.7665   -9.1818   45.1389 H   0  0  0  0  0  0  0  0  0  0  0  0
   39.5804   -9.4144   46.2750 H   0  0  0  0  0  0  0  0  0  0  0  0
   40.4049  -10.4221   47.3126 H   0  0  0  0  0  0  0  0  0  0  0  0
   40.6520  -11.0894   44.7394 H   0  0  0  0  0  0  0  0  0  0  0  0
   39.9390  -12.7555   46.8392 H   0  0  0  0  0  0  0  0  0  0  0  0
   41.4950  -12.4399   46.3807 H   0  0  0  0  0  0  0  0  0  0  0  0
   40.8257  -14.5404   45.5087 H   0  0  0  0  0  0  0  0  0  0  0  0
   41.0993  -13.4816   44.2902 H   0  0  0  0  0  0  0  0  0  0  0  0
   37.5682  -12.2316   43.4760 H   0  0  0  0  0  0  0  0  0  0  0  0
   39.1461  -12.0920   43.0764 H   0  0  0  0  0  0  0  0  0  0  0  0
   38.4771  -10.3424   44.5876 H   0  0  0  0  0  0  0  0  0  0  0  0
   38.1040  -11.5064   45.6997 H   0  0  0  0  0  0  0  0  0  0  0  0
   38.7276   -7.1651   44.7880 H   0  0  0  0  0  0  0  0  0  0  0  0
   39.8183   -8.3642   44.5421 H   0  0  0  0  0  0  0  0  0  0  0  0
   38.5202   -7.7788   42.5502 H   0  0  0  0  0  0  0  0  0  0  0  0
   40.1603   -7.7260   42.3516 H   0  0  0  0  0  0  0  0  0  0  0  0
   40.9071   -4.6797   42.1793 H   0  0  0  0  0  0  0  0  0  0  0  0
   39.6895   -4.1054   43.1534 H   0  0  0  0  0  0  0  0  0  0  0  0
   39.0042   -3.7540   41.1026 H   0  0  0  0  0  0  0  0  0  0  0  0
   37.8096   -4.1186   40.2416 H   0  0  0  0  0  0  0  0  0  0  0  0
  1  2  1  0  0  0  0
  1 50  1  0  0  0  0
  1 51  1  0  0  0  0
  1 52  1  0  0  0  0
  2  3  1  0  0  0  0
  2  4  1  0  0  0  0
  2 53  1  0  0  0  0
  3 54  1  0  0  0  0
  3 55  1  0  0  0  0
  3 56  1  0  0  0  0
  4  5  1  0  0  0  0
  5  6  2  0  0  0  0
  5 10  1  0  0  0  0
  6  7  1  0  0  0  0
  6 57  1  0  0  0  0
  7  8  2  0  0  0  0
  7 58  1  0  0  0  0
  8  9  1  0  0  0  0
  8 11  1  0  0  0  0
  9 10  2  0  0  0  0
  9 59  1  0  0  0  0
 10 60  1  0  0  0  0
 11 12  1  0  0  0  0
 11 61  1  0  0  0  0
 11 62  1  0  0  0  0
 12 13  1  0  0  0  0
 12 63  1  0  0  0  0
 12 64  1  0  0  0  0
 13 14  1  0  0  0  0
 13 65  1  0  0  0  0
 13 66  1  0  0  0  0
 14 15  2  0  0  0  0
 14 19  1  0  0  0  0
 15 16  1  0  0  0  0
 15 67  1  0  0  0  0
 16 17  2  0  0  0  0
 16 68  1  0  0  0  0
 17 18  1  0  0  0  0
 17 20  1  0  0  0  0
 18 19  2  0  0  0  0
 18 69  1  0  0  0  0
 19 70  1  0  0  0  0
 20 21  3  0  0  0  0
 21 22  1  0  0  0  0
 22 23  2  0  0  0  0
 22 27  1  0  0  0  0
 23 24  1  0  0  0  0
 23 71  1  0  0  0  0
 24 25  2  0  0  0  0
 24 29  1  0  0  0  0
 25 26  1  0  0  0  0
 25 72  1  0  0  0  0
 26 27  2  0  0  0  0
 26 73  1  0  0  0  0
 27 28  1  0  0  0  0
 29 30  1  0  0  0  0
 29 33  2  0  0  0  0
 30 31  2  0  0  0  0
 30 46  1  0  0  0  0
 31 32  1  0  0  0  0
 31 43  1  0  0  0  0
 32 33  1  0  0  0  0
 32 34  1  0  0  0  0
 34 35  1  0  0  0  0
 34 74  1  0  0  0  0
 34 75  1  0  0  0  0
 35 36  1  0  0  0  0
 35 76  1  0  0  0  0
 35 77  1  0  0  0  0
 36 37  1  0  0  0  0
 36 78  1  0  0  0  0
 36 79  1  0  0  0  0
 37 38  1  0  0  0  0
 37 42  1  0  0  0  0
 37 80  1  0  0  0  0
 38 39  1  0  0  0  0
 38 81  1  0  0  0  0
 38 82  1  0  0  0  0
 39 40  1  0  0  0  0
 39 83  1  0  0  0  0
 39 84  1  0  0  0  0
 40 41  1  0  0  0  0
 41 42  1  0  0  0  0
 41 85  1  0  0  0  0
 41 86  1  0  0  0  0
 42 87  1  0  0  0  0
 42 88  1  0  0  0  0
 43 44  1  0  0  0  0
 43 89  1  0  0  0  0
 43 90  1  0  0  0  0
 44 45  1  0  0  0  0
 44 91  1  0  0  0  0
 44 92  1  0  0  0  0
 45 46  1  0  0  0  0
 45 47  1  0  0  0  0
 46 93  1  0  0  0  0
 46 94  1  0  0  0  0
 47 48  2  0  0  0  0
 47 49  1  0  0  0  0
 49 95  1  0  0  0  0
 49 96  1  0  0  0  0
M  CHG  2  12   1  37   1
M  END
