CatS_345:1_D
 OpenBabel12041818463D

 89 95  0  0  1  0  0  0  0  0999 V2000
   36.0883   -4.5154   41.5890 C   0  0  0  0  0  0  0  0  0  0  0  0
   35.8610   -5.5820   40.4954 C   0  0  1  0  0  0  0  0  0  0  0  0
   35.8826   -4.8942   39.1161 C   0  0  0  0  0  0  0  0  0  0  0  0
   35.6827   -5.8595   38.0674 O   0  0  0  0  0  0  0  0  0  0  0  0
   36.7291   -6.8480   38.0313 C   0  0  0  0  0  0  0  0  0  0  0  0
   36.7630   -7.6536   39.3445 C   0  0  0  0  0  0  0  0  0  0  0  0
   36.8689   -6.7174   40.5285 N   0  3  1  0  0  0  0  0  0  0  0  0
   38.2756   -6.2277   40.7781 C   0  0  0  0  0  0  0  0  0  0  0  0
   39.0083   -6.8711   41.9794 C   0  0  0  0  0  0  0  0  0  0  0  0
   39.0739   -5.9302   43.2048 C   0  0  0  0  0  0  0  0  0  0  0  0
   40.3692   -5.5876   43.8176 N   0  0  0  0  0  0  0  0  0  0  0  0
   41.0862   -6.1707   44.8173 C   0  0  0  0  0  0  0  0  0  0  0  0
   42.1454   -5.4477   45.1929 C   0  0  0  0  0  0  0  0  0  0  0  0
   42.0911   -4.3213   44.3357 C   0  0  0  0  0  0  0  0  0  0  0  0
   41.0457   -4.4478   43.5475 N   0  0  0  0  0  0  0  0  0  0  0  0
   42.9652   -3.1618   44.2927 C   0  0  0  0  0  0  0  0  0  0  0  0
   42.8115   -2.0651   45.1333 C   0  0  0  0  0  0  0  0  0  0  0  0
   43.6761   -0.9926   45.0533 C   0  0  0  0  0  0  0  0  0  0  0  0
   44.7157   -0.9984   44.1524 C   0  0  0  0  0  0  0  0  0  0  0  0
   44.8927   -2.1034   43.3239 C   0  0  0  0  0  0  0  0  0  0  0  0
   44.0108   -3.1714   43.3984 C   0  0  0  0  0  0  0  0  0  0  0  0
   45.9733   -2.2021   42.3786 C   0  0  0  0  0  0  0  0  0  0  0  0
   46.8461   -2.2623   41.5288 C   0  0  0  0  0  0  0  0  0  0  0  0
   47.8214   -2.3172   40.4714 C   0  0  0  0  0  0  0  0  0  0  0  0
   47.3704   -2.5578   39.1791 C   0  0  0  0  0  0  0  0  0  0  0  0
   48.2650   -2.6475   38.1460 C   0  0  0  0  0  0  0  0  0  0  0  0
   49.6154   -2.4954   38.3800 C   0  0  0  0  0  0  0  0  0  0  0  0
   50.0739   -2.2429   39.6627 C   0  0  0  0  0  0  0  0  0  0  0  0
   49.1834   -2.1533   40.7053 C   0  0  0  0  0  0  0  0  0  0  0  0
   51.5593   -2.0522   39.9357 C   0  0  0  0  0  0  0  0  0  0  0  0
   52.4789   -2.5597   38.8046 C   0  0  0  0  0  0  0  0  0  0  0  0
   51.9502   -2.1250   37.4622 N   0  3  2  0  0  0  0  0  0  0  0  0
   50.5595   -2.6447   37.1939 C   0  0  0  0  0  0  0  0  0  0  0  0
   52.8982   -2.4689   36.3427 C   0  0  0  0  0  0  0  0  0  0  0  0
   53.7826   -1.3244   35.8172 C   0  0  0  0  0  0  0  0  0  0  0  0
   52.5814   -1.8090   34.9896 C   0  0  0  0  0  0  0  0  0  0  0  0
   45.8004    0.3596   44.0462 Cl  0  0  0  0  0  0  0  0  0  0  0  0
   43.1054   -5.8938   46.2992 C   0  0  0  0  0  0  0  0  0  0  0  0
   42.5529   -6.9391   47.1988 N   0  0  0  0  0  0  0  0  0  0  0  0
   41.9299   -7.9940   46.3755 C   0  0  0  0  0  0  0  0  0  0  0  0
   40.7617   -7.4873   45.5002 C   0  0  0  0  0  0  0  0  0  0  0  0
   43.4977   -7.5520   48.3885 S   0  0  0  0  0  0  0  0  0  0  0  0
   42.7194   -8.4793   49.1444 O   0  0  0  0  0  0  0  0  0  0  0  0
   44.0073   -6.4626   49.1599 O   0  0  0  0  0  0  0  0  0  0  0  0
   44.9038   -8.4322   47.6534 C   0  0  0  0  0  0  0  0  0  0  0  0
   34.9710   -6.0018   40.6734 H   0  0  0  0  0  0  0  0  0  0  0  0
   35.3941   -3.8016   41.4969 H   0  0  0  0  0  0  0  0  0  0  0  0
   36.0190   -4.9381   42.4927 H   0  0  0  0  0  0  0  0  0  0  0  0
   36.9992   -4.1160   41.4854 H   0  0  0  0  0  0  0  0  0  0  0  0
   36.7647   -4.4415   38.9863 H   0  0  0  0  0  0  0  0  0  0  0  0
   35.1436   -4.2213   39.0793 H   0  0  0  0  0  0  0  0  0  0  0  0
   37.6092   -6.3917   37.9003 H   0  0  0  0  0  0  0  0  0  0  0  0
   36.5510   -7.4768   37.2745 H   0  0  0  0  0  0  0  0  0  0  0  0
   37.5507   -8.2696   39.3357 H   0  0  0  0  0  0  0  0  0  0  0  0
   35.9192   -8.1843   39.4238 H   0  0  0  0  0  0  0  0  0  0  0  0
   36.6448   -7.2162   41.2581 H   0  0  0  0  0  0  0  0  0  0  0  0
   38.2355   -5.2406   40.9327 H   0  0  0  0  0  0  0  0  0  0  0  0
   38.8019   -6.4888   39.9688 H   0  0  0  0  0  0  0  0  0  0  0  0
   39.9399   -7.1050   41.7011 H   0  0  0  0  0  0  0  0  0  0  0  0
   38.4932   -7.6846   42.2494 H   0  0  0  0  0  0  0  0  0  0  0  0
   38.5184   -6.3521   43.9213 H   0  0  0  0  0  0  0  0  0  0  0  0
   38.7655   -5.0550   42.8320 H   0  0  0  0  0  0  0  0  0  0  0  0
   42.0677   -2.0534   45.8017 H   0  0  0  0  0  0  0  0  0  0  0  0
   43.5459   -0.2046   45.6552 H   0  0  0  0  0  0  0  0  0  0  0  0
   44.1366   -3.9584   42.7943 H   0  0  0  0  0  0  0  0  0  0  0  0
   46.3918   -2.6655   39.0034 H   0  0  0  0  0  0  0  0  0  0  0  0
   47.9375   -2.8241   37.2178 H   0  0  0  0  0  0  0  0  0  0  0  0
   49.5137   -1.9705   41.6313 H   0  0  0  0  0  0  0  0  0  0  0  0
   51.7910   -2.5426   40.7758 H   0  0  0  0  0  0  0  0  0  0  0  0
   51.7140   -1.0671   40.0107 H   0  0  0  0  0  0  0  0  0  0  0  0
   52.5226   -3.5582   38.8365 H   0  0  0  0  0  0  0  0  0  0  0  0
   53.3926   -2.1738   38.9320 H   0  0  0  0  0  0  0  0  0  0  0  0
   51.8830   -1.2172   37.5026 H   0  0  0  0  0  0  0  0  0  0  0  0
   50.1763   -2.1442   36.4176 H   0  0  0  0  0  0  0  0  0  0  0  0
   50.6439   -3.6234   37.0068 H   0  0  0  0  0  0  0  0  0  0  0  0
   53.0715   -3.4010   36.6607 H   0  0  0  0  0  0  0  0  0  0  0  0
   54.7150   -1.5110   35.5079 H   0  0  0  0  0  0  0  0  0  0  0  0
   54.0831   -0.4408   36.1763 H   0  0  0  0  0  0  0  0  0  0  0  0
   51.7723   -1.2298   34.8900 H   0  0  0  0  0  0  0  0  0  0  0  0
   52.4549   -2.1393   34.0542 H   0  0  0  0  0  0  0  0  0  0  0  0
   43.3430   -5.0947   46.8514 H   0  0  0  0  0  0  0  0  0  0  0  0
   43.8996   -6.2975   45.8450 H   0  0  0  0  0  0  0  0  0  0  0  0
   41.5853   -8.7093   46.9836 H   0  0  0  0  0  0  0  0  0  0  0  0
   42.6347   -8.3343   45.7529 H   0  0  0  0  0  0  0  0  0  0  0  0
   40.5587   -8.1730   44.8012 H   0  0  0  0  0  0  0  0  0  0  0  0
   39.9744   -7.3369   46.0982 H   0  0  0  0  0  0  0  0  0  0  0  0
   45.7518   -7.9821   47.9330 H   0  0  0  0  0  0  0  0  0  0  0  0
   44.9081   -9.3823   47.9654 H   0  0  0  0  0  0  0  0  0  0  0  0
   44.8263   -8.4174   46.6565 H   0  0  0  0  0  0  0  0  0  0  0  0
  1  2  1  0  0  0  0
  1 47  1  0  0  0  0
  1 48  1  0  0  0  0
  1 49  1  0  0  0  0
  2  3  1  0  0  0  0
  2  7  1  0  0  0  0
  2 46  1  1  0  0  0
  3  4  1  0  0  0  0
  3 50  1  0  0  0  0
  3 51  1  0  0  0  0
  4  5  1  0  0  0  0
  5  6  1  0  0  0  0
  5 52  1  0  0  0  0
  5 53  1  0  0  0  0
  6  7  1  0  0  0  0
  6 54  1  0  0  0  0
  6 55  1  0  0  0  0
  7  8  1  0  0  0  0
  7 56  1  1  0  0  0
  8  9  1  0  0  0  0
  8 57  1  0  0  0  0
  8 58  1  0  0  0  0
  9 10  1  0  0  0  0
  9 59  1  0  0  0  0
  9 60  1  0  0  0  0
 10 11  1  0  0  0  0
 10 61  1  0  0  0  0
 10 62  1  0  0  0  0
 11 12  1  0  0  0  0
 11 15  1  0  0  0  0
 12 13  2  0  0  0  0
 12 41  1  0  0  0  0
 13 14  1  0  0  0  0
 13 38  1  0  0  0  0
 14 15  2  0  0  0  0
 14 16  1  0  0  0  0
 16 17  2  0  0  0  0
 16 21  1  0  0  0  0
 17 18  1  0  0  0  0
 17 63  1  0  0  0  0
 18 19  2  0  0  0  0
 18 64  1  0  0  0  0
 19 20  1  0  0  0  0
 19 37  1  0  0  0  0
 20 21  2  0  0  0  0
 20 22  1  0  0  0  0
 21 65  1  0  0  0  0
 22 23  3  0  0  0  0
 23 24  1  0  0  0  0
 24 25  2  0  0  0  0
 24 29  1  0  0  0  0
 25 26  1  0  0  0  0
 25 66  1  0  0  0  0
 26 27  2  0  0  0  0
 26 67  1  0  0  0  0
 27 28  1  0  0  0  0
 27 33  1  0  0  0  0
 28 29  2  0  0  0  0
 28 30  1  0  0  0  0
 29 68  1  0  0  0  0
 30 31  1  0  0  0  0
 30 69  1  0  0  0  0
 30 70  1  0  0  0  0
 31 32  1  0  0  0  0
 31 71  1  0  0  0  0
 31 72  1  0  0  0  0
 32 33  1  0  0  0  0
 32 34  1  0  0  0  0
 32 73  1  1  0  0  0
 33 74  1  0  0  0  0
 33 75  1  0  0  0  0
 34 35  1  0  0  0  0
 34 36  1  0  0  0  0
 34 76  1  0  0  0  0
 35 36  1  0  0  0  0
 35 77  1  0  0  0  0
 35 78  1  0  0  0  0
 36 79  1  0  0  0  0
 36 80  1  0  0  0  0
 38 39  1  0  0  0  0
 38 81  1  0  0  0  0
 38 82  1  0  0  0  0
 39 40  1  0  0  0  0
 39 42  1  0  0  0  0
 40 41  1  0  0  0  0
 40 83  1  0  0  0  0
 40 84  1  0  0  0  0
 41 85  1  0  0  0  0
 41 86  1  0  0  0  0
 42 43  2  0  0  0  0
 42 44  2  0  0  0  0
 42 45  1  0  0  0  0
 45 87  1  0  0  0  0
 45 88  1  0  0  0  0
 45 89  1  0  0  0  0
M  CHG  2   7   1  32   1
M  END
