CatS_302:1_D
 OpenBabel12041818463D

 90 96  0  0  1  0  0  0  0  0999 V2000
   52.6514   -4.1812   38.2872 C   0  0  0  0  0  0  0  0  0  0  0  0
   52.1423   -4.9600   37.2734 C   0  0  0  0  0  0  0  0  0  0  0  0
   51.3533   -4.3908   36.2990 C   0  0  0  0  0  0  0  0  0  0  0  0
   51.0724   -3.0434   36.3430 C   0  0  0  0  0  0  0  0  0  0  0  0
   51.5824   -2.2670   37.3581 C   0  0  0  0  0  0  0  0  0  0  0  0
   52.3751   -2.8324   38.3329 C   0  0  0  0  0  0  0  0  0  0  0  0
   52.9521   -1.9729   39.4496 C   0  0  0  0  0  0  0  0  0  0  0  0
   52.5270   -2.3801   40.8385 N   0  3  1  0  0  0  0  0  0  0  0  0
   53.4110   -1.8202   41.9253 C   0  0  0  0  0  0  0  0  0  0  0  0
   53.0129   -2.4135   43.2919 C   0  0  0  0  0  0  0  0  0  0  0  0
   51.5145   -2.3974   43.5511 C   0  0  0  0  0  0  0  0  0  0  0  0
   51.0626   -2.5331   44.8481 C   0  0  0  0  0  0  0  0  0  0  0  0
   49.7187   -2.5186   45.1192 C   0  0  0  0  0  0  0  0  0  0  0  0
   48.8046   -2.3746   44.0816 C   0  0  0  0  0  0  0  0  0  0  0  0
   49.2634   -2.2490   42.7748 C   0  0  0  0  0  0  0  0  0  0  0  0
   50.6104   -2.2561   42.5118 C   0  0  0  0  0  0  0  0  0  0  0  0
   51.0666   -2.0721   41.0687 C   0  0  0  0  0  0  0  0  0  0  0  0
   47.3936   -2.3356   44.3672 C   0  0  0  0  0  0  0  0  0  0  0  0
   46.1955   -2.2901   44.5932 C   0  0  0  0  0  0  0  0  0  0  0  0
   44.7783   -2.2180   44.8407 C   0  0  0  0  0  0  0  0  0  0  0  0
   43.9687   -3.2929   44.4924 C   0  0  0  0  0  0  0  0  0  0  0  0
   42.6099   -3.2632   44.7409 C   0  0  0  0  0  0  0  0  0  0  0  0
   42.0675   -2.1302   45.3294 C   0  0  0  0  0  0  0  0  0  0  0  0
   42.8615   -1.0583   45.6729 C   0  0  0  0  0  0  0  0  0  0  0  0
   44.2144   -1.0938   45.4367 C   0  0  0  0  0  0  0  0  0  0  0  0
   45.2171    0.2565   45.8796 Cl  0  0  0  0  0  0  0  0  0  0  0  0
   41.7377   -4.3796   44.4091 C   0  0  0  0  0  0  0  0  0  0  0  0
   41.5865   -5.6260   45.0653 C   0  0  0  0  0  0  0  0  0  0  0  0
   40.6412   -6.2441   44.3529 C   0  0  0  0  0  0  0  0  0  0  0  0
   40.1924   -5.4921   43.3158 N   0  0  0  0  0  0  0  0  0  0  0  0
   40.9030   -4.3449   43.3933 N   0  0  0  0  0  0  0  0  0  0  0  0
   39.1050   -5.7437   42.3594 C   0  0  0  0  0  0  0  0  0  0  0  0
   38.2039   -4.5232   42.1027 C   0  0  0  0  0  0  0  0  0  0  0  0
   38.1934   -4.1197   40.6124 C   0  0  0  0  0  0  0  0  0  0  0  0
   37.2181   -4.9114   39.7737 N   0  3  0  0  0  0  0  0  0  0  0  0
   35.9056   -5.1524   40.4763 C   0  0  0  0  0  0  0  0  0  0  0  0
   34.9537   -5.9321   39.5472 C   0  0  0  0  0  0  0  0  0  0  0  0
   35.5707   -7.1524   39.0931 O   0  0  0  0  0  0  0  0  0  0  0  0
   36.7816   -6.9114   38.3518 C   0  0  0  0  0  0  0  0  0  0  0  0
   37.8156   -6.1869   39.2354 C   0  0  0  0  0  0  0  0  0  0  0  0
   40.1197   -7.6250   44.7080 C   0  0  0  0  0  0  0  0  0  0  0  0
   41.0630   -8.4178   45.6433 C   0  0  0  0  0  0  0  0  0  0  0  0
   41.8570   -7.6193   46.6080 N   0  0  0  0  0  0  0  0  0  0  0  0
   42.2565   -6.2296   46.2917 C   0  0  0  0  0  0  0  0  0  0  0  0
   42.2891   -8.1458   47.7813 C   0  0  0  0  0  0  0  0  0  0  0  0
   42.7638   -7.4284   48.6686 O   0  0  0  0  0  0  0  0  0  0  0  0
   42.2191   -9.4804   47.9639 N   0  0  0  0  0  0  0  0  0  0  0  0
   50.7147   -5.3724   35.0134 Cl  0  0  0  0  0  0  0  0  0  0  0  0
   53.2244   -4.5963   38.9939 H   0  0  0  0  0  0  0  0  0  0  0  0
   52.3453   -5.9388   37.2443 H   0  0  0  0  0  0  0  0  0  0  0  0
   50.4979   -2.6292   35.6371 H   0  0  0  0  0  0  0  0  0  0  0  0
   51.3769   -1.2888   37.3884 H   0  0  0  0  0  0  0  0  0  0  0  0
   52.6648   -1.0272   39.2974 H   0  0  0  0  0  0  0  0  0  0  0  0
   53.9446   -2.0894   39.4127 H   0  0  0  0  0  0  0  0  0  0  0  0
   52.6101   -3.2867   40.8832 H   0  0  0  0  0  0  0  0  0  0  0  0
   53.3136   -0.8253   41.9530 H   0  0  0  0  0  0  0  0  0  0  0  0
   54.3616   -2.0615   41.7300 H   0  0  0  0  0  0  0  0  0  0  0  0
   53.4660   -1.8863   44.0108 H   0  0  0  0  0  0  0  0  0  0  0  0
   53.2978   -3.3720   43.2887 H   0  0  0  0  0  0  0  0  0  0  0  0
   51.7191   -2.6425   45.5944 H   0  0  0  0  0  0  0  0  0  0  0  0
   49.3966   -2.6115   46.0613 H   0  0  0  0  0  0  0  0  0  0  0  0
   48.6096   -2.1533   42.0242 H   0  0  0  0  0  0  0  0  0  0  0  0
   50.5217   -2.6744   40.4855 H   0  0  0  0  0  0  0  0  0  0  0  0
   50.9384   -1.1050   40.8488 H   0  0  0  0  0  0  0  0  0  0  0  0
   44.3742   -4.0967   44.0572 H   0  0  0  0  0  0  0  0  0  0  0  0
   41.0841   -2.0909   45.5070 H   0  0  0  0  0  0  0  0  0  0  0  0
   42.4513   -0.2506   46.0963 H   0  0  0  0  0  0  0  0  0  0  0  0
   38.5381   -6.4873   42.7139 H   0  0  0  0  0  0  0  0  0  0  0  0
   39.5348   -5.9736   41.4862 H   0  0  0  0  0  0  0  0  0  0  0  0
   38.5374   -3.7531   42.6465 H   0  0  0  0  0  0  0  0  0  0  0  0
   37.2699   -4.7671   42.3633 H   0  0  0  0  0  0  0  0  0  0  0  0
   39.1125   -4.2530   40.2417 H   0  0  0  0  0  0  0  0  0  0  0  0
   37.9019   -3.1640   40.5715 H   0  0  0  0  0  0  0  0  0  0  0  0
   37.0184   -4.3965   39.0491 H   0  0  0  0  0  0  0  0  0  0  0  0
   35.4916   -4.2754   40.7202 H   0  0  0  0  0  0  0  0  0  0  0  0
   36.0677   -5.6868   41.3059 H   0  0  0  0  0  0  0  0  0  0  0  0
   34.7250   -5.3633   38.7572 H   0  0  0  0  0  0  0  0  0  0  0  0
   34.1250   -6.1630   40.0571 H   0  0  0  0  0  0  0  0  0  0  0  0
   36.5742   -6.3472   37.5526 H   0  0  0  0  0  0  0  0  0  0  0  0
   37.1636   -7.7882   38.0596 H   0  0  0  0  0  0  0  0  0  0  0  0
   38.0797   -6.7793   39.9965 H   0  0  0  0  0  0  0  0  0  0  0  0
   38.6233   -5.9689   38.6876 H   0  0  0  0  0  0  0  0  0  0  0  0
   39.9966   -8.1455   43.8630 H   0  0  0  0  0  0  0  0  0  0  0  0
   39.2586   -7.4969   45.1999 H   0  0  0  0  0  0  0  0  0  0  0  0
   41.7021   -8.9304   45.0700 H   0  0  0  0  0  0  0  0  0  0  0  0
   40.4633   -8.9894   46.2033 H   0  0  0  0  0  0  0  0  0  0  0  0
   42.0370   -5.6550   47.0801 H   0  0  0  0  0  0  0  0  0  0  0  0
   43.2343   -6.2636   46.0851 H   0  0  0  0  0  0  0  0  0  0  0  0
   41.9471  -10.0134   47.3224 H   0  0  0  0  0  0  0  0  0  0  0  0
   42.4696   -9.8248   48.7340 H   0  0  0  0  0  0  0  0  0  0  0  0
  1  2  2  0  0  0  0
  1  6  1  0  0  0  0
  1 49  1  0  0  0  0
  2  3  1  0  0  0  0
  2 50  1  0  0  0  0
  3  4  2  0  0  0  0
  3 48  1  0  0  0  0
  4  5  1  0  0  0  0
  4 51  1  0  0  0  0
  5  6  2  0  0  0  0
  5 52  1  0  0  0  0
  6  7  1  0  0  0  0
  7  8  1  0  0  0  0
  7 53  1  0  0  0  0
  7 54  1  0  0  0  0
  8  9  1  0  0  0  0
  8 17  1  0  0  0  0
  8 55  1  1  0  0  0
  9 10  1  0  0  0  0
  9 56  1  0  0  0  0
  9 57  1  0  0  0  0
 10 11  1  0  0  0  0
 10 58  1  0  0  0  0
 10 59  1  0  0  0  0
 11 12  2  0  0  0  0
 11 16  1  0  0  0  0
 12 13  1  0  0  0  0
 12 60  1  0  0  0  0
 13 14  2  0  0  0  0
 13 61  1  0  0  0  0
 14 15  1  0  0  0  0
 14 18  1  0  0  0  0
 15 16  2  0  0  0  0
 15 62  1  0  0  0  0
 16 17  1  0  0  0  0
 17 63  1  0  0  0  0
 17 64  1  0  0  0  0
 18 19  3  0  0  0  0
 19 20  1  0  0  0  0
 20 21  2  0  0  0  0
 20 25  1  0  0  0  0
 21 22  1  0  0  0  0
 21 65  1  0  0  0  0
 22 23  2  0  0  0  0
 22 27  1  0  0  0  0
 23 24  1  0  0  0  0
 23 66  1  0  0  0  0
 24 25  2  0  0  0  0
 24 67  1  0  0  0  0
 25 26  1  0  0  0  0
 27 28  1  0  0  0  0
 27 31  2  0  0  0  0
 28 29  2  0  0  0  0
 28 44  1  0  0  0  0
 29 30  1  0  0  0  0
 29 41  1  0  0  0  0
 30 31  1  0  0  0  0
 30 32  1  0  0  0  0
 32 33  1  0  0  0  0
 32 68  1  0  0  0  0
 32 69  1  0  0  0  0
 33 34  1  0  0  0  0
 33 70  1  0  0  0  0
 33 71  1  0  0  0  0
 34 35  1  0  0  0  0
 34 72  1  0  0  0  0
 34 73  1  0  0  0  0
 35 36  1  0  0  0  0
 35 40  1  0  0  0  0
 35 74  1  0  0  0  0
 36 37  1  0  0  0  0
 36 75  1  0  0  0  0
 36 76  1  0  0  0  0
 37 38  1  0  0  0  0
 37 77  1  0  0  0  0
 37 78  1  0  0  0  0
 38 39  1  0  0  0  0
 39 40  1  0  0  0  0
 39 79  1  0  0  0  0
 39 80  1  0  0  0  0
 40 81  1  0  0  0  0
 40 82  1  0  0  0  0
 41 42  1  0  0  0  0
 41 83  1  0  0  0  0
 41 84  1  0  0  0  0
 42 43  1  0  0  0  0
 42 85  1  0  0  0  0
 42 86  1  0  0  0  0
 43 44  1  0  0  0  0
 43 45  1  0  0  0  0
 44 87  1  0  0  0  0
 44 88  1  0  0  0  0
 45 46  2  0  0  0  0
 45 47  1  0  0  0  0
 47 89  1  0  0  0  0
 47 90  1  0  0  0  0
M  CHG  2   8   1  35   1
M  END
