CatS_418:1_D
 OpenBabel12041818463D

 89 94  0  0  0  0  0  0  0  0999 V2000
   47.3573   -0.9105   40.3325 C   0  0  0  0  0  0  0  0  0  0  0  0
   48.4798   -0.7906   39.5527 C   0  0  0  0  0  0  0  0  0  0  0  0
   49.4419   -1.7795   39.5575 C   0  0  0  0  0  0  0  0  0  0  0  0
   49.2838   -2.9163   40.3427 C   0  0  0  0  0  0  0  0  0  0  0  0
   48.1580   -3.0304   41.1342 C   0  0  0  0  0  0  0  0  0  0  0  0
   47.1921   -2.0346   41.1376 C   0  0  0  0  0  0  0  0  0  0  0  0
   46.0408   -2.1827   41.9897 C   0  0  0  0  0  0  0  0  0  0  0  0
   45.0652   -2.3432   42.7044 C   0  0  0  0  0  0  0  0  0  0  0  0
   43.9139   -2.5716   43.5384 C   0  0  0  0  0  0  0  0  0  0  0  0
   43.2150   -3.7646   43.4105 C   0  0  0  0  0  0  0  0  0  0  0  0
   42.1117   -4.0235   44.1947 C   0  0  0  0  0  0  0  0  0  0  0  0
   41.7013   -3.0629   45.1108 C   0  0  0  0  0  0  0  0  0  0  0  0
   42.3905   -1.8763   45.2445 C   0  0  0  0  0  0  0  0  0  0  0  0
   43.4954   -1.6239   44.4674 C   0  0  0  0  0  0  0  0  0  0  0  0
   44.3645   -0.1283   44.6422 Cl  0  0  0  0  0  0  0  0  0  0  0  0
   41.4236   -5.2921   44.0209 C   0  0  0  0  0  0  0  0  0  0  0  0
   40.3626   -5.6317   43.1479 C   0  0  0  0  0  0  0  0  0  0  0  0
   40.1436   -6.9251   43.4104 C   0  0  0  0  0  0  0  0  0  0  0  0
   40.9592   -7.4049   44.3829 N   0  0  0  0  0  0  0  0  0  0  0  0
   41.7379   -6.3579   44.7245 N   0  0  0  0  0  0  0  0  0  0  0  0
   41.0242   -8.7284   45.0141 C   0  0  0  0  0  0  0  0  0  0  0  0
   39.6921   -9.0707   45.6996 C   0  0  0  0  0  0  0  0  0  0  0  0
   39.7498  -10.5199   46.2236 C   0  0  0  0  0  0  0  0  0  0  0  0
   39.8204  -11.5488   45.1210 N   0  3  0  0  0  0  0  0  0  0  0  0
   40.4059  -12.8595   45.5928 C   0  0  0  0  0  0  0  0  0  0  0  0
   40.6890  -13.8311   44.4316 C   0  0  0  0  0  0  0  0  0  0  0  0
   39.1460  -14.2502   43.5833 S   0  0  0  0  0  0  0  0  0  0  0  0
   38.5974  -12.5798   43.1531 C   0  0  0  0  0  0  0  0  0  0  0  0
   38.4918  -11.7121   44.4216 C   0  0  0  0  0  0  0  0  0  0  0  0
   39.0831   -7.7434   42.6914 C   0  0  0  0  0  0  0  0  0  0  0  0
   38.6658   -7.0949   41.3540 C   0  0  0  0  0  0  0  0  0  0  0  0
   38.5095   -5.6319   41.4831 N   0  0  0  0  0  0  0  0  0  0  0  0
   39.5789   -4.8299   42.1154 C   0  0  0  0  0  0  0  0  0  0  0  0
   37.4105   -5.0140   41.0135 C   0  0  0  0  0  0  0  0  0  0  0  0
   37.1829   -3.8154   41.1075 O   0  0  0  0  0  0  0  0  0  0  0  0
   36.3667   -5.8065   40.3240 C   0  0  0  0  0  0  0  0  0  0  0  0
   35.4603   -6.3204   40.9636 O   0  0  0  0  0  0  0  0  0  0  0  0
   36.5100   -5.8874   38.9953 N   0  0  0  0  0  0  0  0  0  0  0  0
   50.2969   -3.9989   40.3855 C   0  0  0  0  0  0  0  0  0  0  0  0
   50.9524   -4.0334   41.4248 O   0  0  0  0  0  0  0  0  0  0  0  0
   50.4475   -4.8884   39.3716 N   0  0  0  0  0  0  0  0  0  0  0  0
   49.6458   -4.7865   38.1335 C   0  0  0  0  0  0  0  0  0  0  0  0
   49.9512   -5.6935   36.9236 C   0  0  0  0  0  0  0  0  0  0  0  0
   51.4010   -5.5125   36.4284 C   0  0  0  0  0  0  0  0  0  0  0  0
   52.3853   -6.3215   37.2331 N   0  3  0  0  0  0  0  0  0  0  0  0
   52.6449   -5.8616   38.6439 C   0  0  0  0  0  0  0  0  0  0  0  0
   51.3949   -6.0076   39.5324 C   0  0  0  0  0  0  0  0  0  0  0  0
   50.8659   -1.5951   38.5762 Cl  0  0  0  0  0  0  0  0  0  0  0  0
   46.6605   -0.1934   40.3227 H   0  0  0  0  0  0  0  0  0  0  0  0
   48.6013    0.0182   38.9775 H   0  0  0  0  0  0  0  0  0  0  0  0
   48.0379   -3.8387   41.7106 H   0  0  0  0  0  0  0  0  0  0  0  0
   43.5158   -4.4440   42.7413 H   0  0  0  0  0  0  0  0  0  0  0  0
   40.8968   -3.2340   45.6796 H   0  0  0  0  0  0  0  0  0  0  0  0
   42.0849   -1.1958   45.9104 H   0  0  0  0  0  0  0  0  0  0  0  0
   41.7571   -8.7334   45.6945 H   0  0  0  0  0  0  0  0  0  0  0  0
   41.2051   -9.4123   44.3073 H   0  0  0  0  0  0  0  0  0  0  0  0
   38.9431   -8.9791   45.0434 H   0  0  0  0  0  0  0  0  0  0  0  0
   39.5366   -8.4443   46.4635 H   0  0  0  0  0  0  0  0  0  0  0  0
   38.9319  -10.6939   46.7720 H   0  0  0  0  0  0  0  0  0  0  0  0
   40.5869  -10.6073   46.7636 H   0  0  0  0  0  0  0  0  0  0  0  0
   40.3914  -11.2122   44.4961 H   0  0  0  0  0  0  0  0  0  0  0  0
   39.7623  -13.2906   46.2253 H   0  0  0  0  0  0  0  0  0  0  0  0
   41.2779  -12.6593   46.0393 H   0  0  0  0  0  0  0  0  0  0  0  0
   41.1093  -14.6645   44.7904 H   0  0  0  0  0  0  0  0  0  0  0  0
   41.3104  -13.3932   43.7819 H   0  0  0  0  0  0  0  0  0  0  0  0
   37.7035  -12.6285   42.7076 H   0  0  0  0  0  0  0  0  0  0  0  0
   39.2635  -12.1676   42.5315 H   0  0  0  0  0  0  0  0  0  0  0  0
   38.1482  -10.8080   44.1674 H   0  0  0  0  0  0  0  0  0  0  0  0
   37.8698  -12.1738   45.0540 H   0  0  0  0  0  0  0  0  0  0  0  0
   38.2788   -7.8221   43.2803 H   0  0  0  0  0  0  0  0  0  0  0  0
   39.4691   -8.6439   42.4912 H   0  0  0  0  0  0  0  0  0  0  0  0
   37.7973   -7.4914   41.0566 H   0  0  0  0  0  0  0  0  0  0  0  0
   39.3856   -7.2728   40.6828 H   0  0  0  0  0  0  0  0  0  0  0  0
   40.2085   -4.5116   41.4067 H   0  0  0  0  0  0  0  0  0  0  0  0
   39.1473   -4.0606   42.5863 H   0  0  0  0  0  0  0  0  0  0  0  0
   37.1923   -5.4950   38.6017 H   0  0  0  0  0  0  0  0  0  0  0  0
   35.9218   -6.3325   38.5156 H   0  0  0  0  0  0  0  0  0  0  0  0
   49.7287   -3.8424   37.8144 H   0  0  0  0  0  0  0  0  0  0  0  0
   48.7427   -5.1016   38.4253 H   0  0  0  0  0  0  0  0  0  0  0  0
   49.3214   -5.4682   36.1803 H   0  0  0  0  0  0  0  0  0  0  0  0
   49.8367   -6.6448   37.2098 H   0  0  0  0  0  0  0  0  0  0  0  0
   51.6463   -4.5452   36.4939 H   0  0  0  0  0  0  0  0  0  0  0  0
   51.4435   -5.8341   35.4825 H   0  0  0  0  0  0  0  0  0  0  0  0
   52.0887   -7.1823   37.2668 H   0  0  0  0  0  0  0  0  0  0  0  0
   53.1723   -6.3826   36.7806 H   0  0  0  0  0  0  0  0  0  0  0  0
   52.9226   -4.9011   38.6268 H   0  0  0  0  0  0  0  0  0  0  0  0
   53.3676   -6.4351   39.0296 H   0  0  0  0  0  0  0  0  0  0  0  0
   50.9286   -6.8598   39.2950 H   0  0  0  0  0  0  0  0  0  0  0  0
   51.7014   -6.0090   40.4842 H   0  0  0  0  0  0  0  0  0  0  0  0
  1  2  2  0  0  0  0
  1  6  1  0  0  0  0
  1 49  1  0  0  0  0
  2  3  1  0  0  0  0
  2 50  1  0  0  0  0
  3  4  2  0  0  0  0
  3 48  1  0  0  0  0
  4  5  1  0  0  0  0
  4 39  1  0  0  0  0
  5  6  2  0  0  0  0
  5 51  1  0  0  0  0
  6  7  1  0  0  0  0
  7  8  3  0  0  0  0
  8  9  1  0  0  0  0
  9 10  2  0  0  0  0
  9 14  1  0  0  0  0
 10 11  1  0  0  0  0
 10 52  1  0  0  0  0
 11 12  2  0  0  0  0
 11 16  1  0  0  0  0
 12 13  1  0  0  0  0
 12 53  1  0  0  0  0
 13 14  2  0  0  0  0
 13 54  1  0  0  0  0
 14 15  1  0  0  0  0
 16 17  1  0  0  0  0
 16 20  2  0  0  0  0
 17 18  2  0  0  0  0
 17 33  1  0  0  0  0
 18 19  1  0  0  0  0
 18 30  1  0  0  0  0
 19 20  1  0  0  0  0
 19 21  1  0  0  0  0
 21 22  1  0  0  0  0
 21 55  1  0  0  0  0
 21 56  1  0  0  0  0
 22 23  1  0  0  0  0
 22 57  1  0  0  0  0
 22 58  1  0  0  0  0
 23 24  1  0  0  0  0
 23 59  1  0  0  0  0
 23 60  1  0  0  0  0
 24 25  1  0  0  0  0
 24 29  1  0  0  0  0
 24 61  1  0  0  0  0
 25 26  1  0  0  0  0
 25 62  1  0  0  0  0
 25 63  1  0  0  0  0
 26 27  1  0  0  0  0
 26 64  1  0  0  0  0
 26 65  1  0  0  0  0
 27 28  1  0  0  0  0
 28 29  1  0  0  0  0
 28 66  1  0  0  0  0
 28 67  1  0  0  0  0
 29 68  1  0  0  0  0
 29 69  1  0  0  0  0
 30 31  1  0  0  0  0
 30 70  1  0  0  0  0
 30 71  1  0  0  0  0
 31 32  1  0  0  0  0
 31 72  1  0  0  0  0
 31 73  1  0  0  0  0
 32 33  1  0  0  0  0
 32 34  1  0  0  0  0
 33 74  1  0  0  0  0
 33 75  1  0  0  0  0
 34 35  2  0  0  0  0
 34 36  1  0  0  0  0
 36 37  2  0  0  0  0
 36 38  1  0  0  0  0
 38 76  1  0  0  0  0
 38 77  1  0  0  0  0
 39 40  2  0  0  0  0
 39 41  1  0  0  0  0
 41 42  1  0  0  0  0
 41 47  1  0  0  0  0
 42 43  1  0  0  0  0
 42 78  1  0  0  0  0
 42 79  1  0  0  0  0
 43 44  1  0  0  0  0
 43 80  1  0  0  0  0
 43 81  1  0  0  0  0
 44 45  1  0  0  0  0
 44 82  1  0  0  0  0
 44 83  1  0  0  0  0
 45 46  1  0  0  0  0
 45 84  1  0  0  0  0
 45 85  1  0  0  0  0
 46 47  1  0  0  0  0
 46 86  1  0  0  0  0
 46 87  1  0  0  0  0
 47 88  1  0  0  0  0
 47 89  1  0  0  0  0
M  CHG  2  24   1  45   1
M  END
