CatS_87:1_D
 OpenBabel12041818463D

 95100  0  0  1  0  0  0  0  0999 V2000
   38.7528   -9.3882   46.9905 C   0  0  0  0  0  0  0  0  0  0  0  0
   40.2271   -9.7168   45.9813 S   0  0  0  0  0  0  0  0  0  0  0  0
   41.1515  -10.4530   46.7794 O   0  0  0  0  0  0  0  0  0  0  0  0
   39.8244  -10.3832   44.7879 O   0  0  0  0  0  0  0  0  0  0  0  0
   40.9483   -8.3118   45.5474 N   0  0  0  0  0  0  0  0  0  0  0  0
   41.4593   -7.4138   46.6107 C   0  0  0  0  0  0  0  0  0  0  0  0
   42.3604   -6.2760   46.0625 C   0  0  0  0  0  0  0  0  0  0  0  0
   41.7330   -5.6059   44.8537 C   0  0  0  0  0  0  0  0  0  0  0  0
   40.7272   -6.1879   44.1981 C   0  0  0  0  0  0  0  0  0  0  0  0
   40.4348   -5.2744   43.1628 C   0  0  0  0  0  0  0  0  0  0  0  0
   41.2673   -4.2598   43.2563 N   0  0  0  0  0  0  0  0  0  0  0  0
   42.0873   -4.4051   44.3227 N   0  0  0  0  0  0  0  0  0  0  0  0
   42.9418   -3.3313   44.8489 C   0  0  0  0  0  0  0  0  0  0  0  0
   42.3848   -1.9015   45.0038 C   0  0  2  0  0  0  0  0  0  0  0  0
   42.9638   -1.1963   46.2529 C   0  0  0  0  0  0  0  0  0  0  0  0
   42.1216   -0.0312   46.7139 N   0  3  0  0  0  0  0  0  0  0  0  0
   41.1176   -0.3957   47.7891 C   0  0  0  0  0  0  0  0  0  0  0  0
   40.7496    0.8343   48.6403 C   0  0  0  0  0  0  0  0  0  0  0  0
   41.9718    1.3283   49.4478 C   0  0  0  0  0  0  0  0  0  0  0  0
   43.2629    1.2116   48.5866 C   0  0  0  0  0  0  0  0  0  0  0  0
   42.9692    1.1673   47.0721 C   0  0  0  0  0  0  0  0  0  0  0  0
   41.7054    2.7228   49.7349 O   0  0  0  0  0  0  0  0  0  0  0  0
   42.5568    3.2731   50.7574 C   0  0  0  0  0  0  0  0  0  0  0  0
   42.4160    2.4638   52.0530 C   0  0  0  0  0  0  0  0  0  0  0  0
   42.8216    1.0218   51.7138 C   0  0  0  0  0  0  0  0  0  0  0  0
   42.0387    0.4815   50.6251 O   0  0  0  0  0  0  0  0  0  0  0  0
   40.9528   -1.9714   45.0822 O   0  0  0  0  0  0  0  0  0  0  0  0
   39.3929   -5.3353   42.1560 C   0  0  0  0  0  0  0  0  0  0  0  0
   38.3484   -4.4289   42.1459 C   0  0  0  0  0  0  0  0  0  0  0  0
   37.4089   -4.4642   41.1431 C   0  0  0  0  0  0  0  0  0  0  0  0
   37.4727   -5.3991   40.1287 C   0  0  0  0  0  0  0  0  0  0  0  0
   38.5072   -6.3255   40.1592 C   0  0  0  0  0  0  0  0  0  0  0  0
   39.4466   -6.2917   41.1637 C   0  0  0  0  0  0  0  0  0  0  0  0
   38.6586   -7.6175   38.9137 S   0  0  0  0  0  0  0  0  0  0  0  0
   40.2954   -7.5742   38.1235 C   0  0  0  0  0  0  0  0  0  0  0  0
   41.1921   -8.6951   38.6861 C   0  0  0  0  0  0  0  0  0  0  0  0
   40.9519  -10.0715   38.1205 N   0  3  2  0  0  0  0  0  0  0  0  0
   42.2025  -10.9227   38.0309 C   0  0  0  0  0  0  0  0  0  0  0  0
   42.1288  -11.9866   36.9119 C   0  0  0  0  0  0  0  0  0  0  0  0
   40.6867  -12.5047   36.7679 C   0  0  1  0  0  0  0  0  0  0  0  0
   39.7475  -11.3716   36.2983 C   0  0  0  0  0  0  0  0  0  0  0  0
   40.2060   -9.9862   36.8120 C   0  0  0  0  0  0  0  0  0  0  0  0
   40.6555  -13.5455   35.8463 F   0  0  0  0  0  0  0  0  0  0  0  0
   36.3855   -5.3327   39.0558 C   0  0  0  0  0  0  0  0  0  0  0  0
   36.8800   -4.8089   37.8658 F   0  0  0  0  0  0  0  0  0  0  0  0
   35.8905   -6.6011   38.7759 F   0  0  0  0  0  0  0  0  0  0  0  0
   35.2967   -4.5408   39.4128 F   0  0  0  0  0  0  0  0  0  0  0  0
   40.1152   -7.5175   44.6153 C   0  0  0  0  0  0  0  0  0  0  0  0
   42.6578   -1.3592   44.2092 H   0  0  0  0  0  0  0  0  0  0  0  0
   38.6469   -8.3998   47.0999 H   0  0  0  0  0  0  0  0  0  0  0  0
   37.9439   -9.7658   46.5398 H   0  0  0  0  0  0  0  0  0  0  0  0
   38.8561   -9.8181   47.8874 H   0  0  0  0  0  0  0  0  0  0  0  0
   41.9891   -7.9576   47.2616 H   0  0  0  0  0  0  0  0  0  0  0  0
   40.6676   -6.9837   47.0446 H   0  0  0  0  0  0  0  0  0  0  0  0
   43.2470   -6.6582   45.8019 H   0  0  0  0  0  0  0  0  0  0  0  0
   42.4702   -5.5884   46.7801 H   0  0  0  0  0  0  0  0  0  0  0  0
   43.7347   -3.2695   44.2424 H   0  0  0  0  0  0  0  0  0  0  0  0
   43.1060   -3.6137   45.7940 H   0  0  0  0  0  0  0  0  0  0  0  0
   43.8817   -0.8637   46.0363 H   0  0  0  0  0  0  0  0  0  0  0  0
   42.9787   -1.8662   46.9952 H   0  0  0  0  0  0  0  0  0  0  0  0
   41.6322    0.2231   45.9882 H   0  0  0  0  0  0  0  0  0  0  0  0
   41.5105   -1.1001   48.3803 H   0  0  0  0  0  0  0  0  0  0  0  0
   40.2873   -0.7360   47.3475 H   0  0  0  0  0  0  0  0  0  0  0  0
   40.0135    0.5898   49.2715 H   0  0  0  0  0  0  0  0  0  0  0  0
   40.4519    1.5687   48.0303 H   0  0  0  0  0  0  0  0  0  0  0  0
   43.7469    0.3756   48.8452 H   0  0  0  0  0  0  0  0  0  0  0  0
   43.8159    2.0263   48.7610 H   0  0  0  0  0  0  0  0  0  0  0  0
   42.4859    2.0015   46.8067 H   0  0  0  0  0  0  0  0  0  0  0  0
   43.8393    1.0964   46.5844 H   0  0  0  0  0  0  0  0  0  0  0  0
   42.2984    4.2238   50.9287 H   0  0  0  0  0  0  0  0  0  0  0  0
   43.5071    3.2317   50.4489 H   0  0  0  0  0  0  0  0  0  0  0  0
   41.4711    2.4920   52.3787 H   0  0  0  0  0  0  0  0  0  0  0  0
   42.9937    2.8392   52.7779 H   0  0  0  0  0  0  0  0  0  0  0  0
   42.6917    0.4495   52.5235 H   0  0  0  0  0  0  0  0  0  0  0  0
   43.7803    1.0293   51.4295 H   0  0  0  0  0  0  0  0  0  0  0  0
   40.5333   -1.0702   44.9282 H   0  0  0  0  0  0  0  0  0  0  0  0
   38.2762   -3.7446   42.8716 H   0  0  0  0  0  0  0  0  0  0  0  0
   36.6628   -3.7984   41.1483 H   0  0  0  0  0  0  0  0  0  0  0  0
   40.1801   -6.9714   41.1746 H   0  0  0  0  0  0  0  0  0  0  0  0
   40.7237   -6.6874   38.2973 H   0  0  0  0  0  0  0  0  0  0  0  0
   40.1846   -7.7116   37.1393 H   0  0  0  0  0  0  0  0  0  0  0  0
   41.0491   -8.7374   39.6749 H   0  0  0  0  0  0  0  0  0  0  0  0
   42.1263   -8.4536   38.4232 H   0  0  0  0  0  0  0  0  0  0  0  0
   40.3857  -10.4932   38.6972 H   0  0  0  0  0  0  0  0  0  0  0  0
   42.3378  -11.3863   38.9066 H   0  0  0  0  0  0  0  0  0  0  0  0
   42.9646  -10.3130   37.8129 H   0  0  0  0  0  0  0  0  0  0  0  0
   42.7355  -12.7487   37.1377 H   0  0  0  0  0  0  0  0  0  0  0  0
   42.4140  -11.5723   36.0476 H   0  0  0  0  0  0  0  0  0  0  0  0
   40.3738  -12.8330   37.6592 H   0  0  0  0  0  0  0  0  0  0  0  0
   38.8245  -11.5546   36.6368 H   0  0  0  0  0  0  0  0  0  0  0  0
   39.7666  -11.3500   35.2988 H   0  0  0  0  0  0  0  0  0  0  0  0
   40.8039   -9.5696   36.1273 H   0  0  0  0  0  0  0  0  0  0  0  0
   39.3861   -9.4348   36.9660 H   0  0  0  0  0  0  0  0  0  0  0  0
   39.2371   -7.3348   45.0575 H   0  0  0  0  0  0  0  0  0  0  0  0
   40.0247   -8.0615   43.7812 H   0  0  0  0  0  0  0  0  0  0  0  0
  1  2  1  0  0  0  0
  1 50  1  0  0  0  0
  1 51  1  0  0  0  0
  1 52  1  0  0  0  0
  2  3  2  0  0  0  0
  2  4  2  0  0  0  0
  2  5  1  0  0  0  0
  5  6  1  0  0  0  0
  5 48  1  0  0  0  0
  6  7  1  0  0  0  0
  6 53  1  0  0  0  0
  6 54  1  0  0  0  0
  7  8  1  0  0  0  0
  7 55  1  0  0  0  0
  7 56  1  0  0  0  0
  8  9  2  0  0  0  0
  8 12  1  0  0  0  0
  9 10  1  0  0  0  0
  9 48  1  0  0  0  0
 10 11  2  0  0  0  0
 10 28  1  0  0  0  0
 11 12  1  0  0  0  0
 12 13  1  0  0  0  0
 13 14  1  0  0  0  0
 13 57  1  0  0  0  0
 13 58  1  0  0  0  0
 14 15  1  0  0  0  0
 14 27  1  0  0  0  0
 14 49  1  6  0  0  0
 15 16  1  0  0  0  0
 15 59  1  0  0  0  0
 15 60  1  0  0  0  0
 16 17  1  0  0  0  0
 16 21  1  0  0  0  0
 16 61  1  0  0  0  0
 17 18  1  0  0  0  0
 17 62  1  0  0  0  0
 17 63  1  0  0  0  0
 18 19  1  0  0  0  0
 18 64  1  0  0  0  0
 18 65  1  0  0  0  0
 19 20  1  0  0  0  0
 19 22  1  0  0  0  0
 19 26  1  0  0  0  0
 20 21  1  0  0  0  0
 20 66  1  0  0  0  0
 20 67  1  0  0  0  0
 21 68  1  0  0  0  0
 21 69  1  0  0  0  0
 22 23  1  0  0  0  0
 23 24  1  0  0  0  0
 23 70  1  0  0  0  0
 23 71  1  0  0  0  0
 24 25  1  0  0  0  0
 24 72  1  0  0  0  0
 24 73  1  0  0  0  0
 25 26  1  0  0  0  0
 25 74  1  0  0  0  0
 25 75  1  0  0  0  0
 27 76  1  0  0  0  0
 28 29  2  0  0  0  0
 28 33  1  0  0  0  0
 29 30  1  0  0  0  0
 29 77  1  0  0  0  0
 30 31  2  0  0  0  0
 30 78  1  0  0  0  0
 31 32  1  0  0  0  0
 31 44  1  0  0  0  0
 32 33  2  0  0  0  0
 32 34  1  0  0  0  0
 33 79  1  0  0  0  0
 34 35  1  0  0  0  0
 35 36  1  0  0  0  0
 35 80  1  0  0  0  0
 35 81  1  0  0  0  0
 36 37  1  0  0  0  0
 36 82  1  0  0  0  0
 36 83  1  0  0  0  0
 37 38  1  0  0  0  0
 37 42  1  0  0  0  0
 37 84  1  1  0  0  0
 38 39  1  0  0  0  0
 38 85  1  0  0  0  0
 38 86  1  0  0  0  0
 39 40  1  0  0  0  0
 39 87  1  0  0  0  0
 39 88  1  0  0  0  0
 40 41  1  0  0  0  0
 40 43  1  0  0  0  0
 40 89  1  1  0  0  0
 41 42  1  0  0  0  0
 41 90  1  0  0  0  0
 41 91  1  0  0  0  0
 42 92  1  0  0  0  0
 42 93  1  0  0  0  0
 44 45  1  0  0  0  0
 44 46  1  0  0  0  0
 44 47  1  0  0  0  0
 48 94  1  0  0  0  0
 48 95  1  0  0  0  0
M  CHG  2  16   1  37   1
M  END
