CatS_156:1_D
 OpenBabel12041818463D

 92 96  0  0  1  0  0  0  0  0999 V2000
   41.1762   -3.1734   52.5504 C   0  0  0  0  0  0  0  0  0  0  0  0
   41.1598   -3.3885   51.0235 C   0  0  0  0  0  0  0  0  0  0  0  0
   42.5059   -2.9769   50.3829 C   0  0  0  0  0  0  0  0  0  0  0  0
   42.6947   -1.4456   50.2928 C   0  0  0  0  0  0  0  0  0  0  0  0
   41.5199   -0.7857   49.6129 N   0  3  0  0  0  0  0  0  0  0  0  0
   40.2091   -1.1146   50.2835 C   0  0  0  0  0  0  0  0  0  0  0  0
   39.9793   -2.6386   50.3660 C   0  0  0  0  0  0  0  0  0  0  0  0
   41.6866    0.7028   49.4456 C   0  0  0  0  0  0  0  0  0  0  0  0
   41.8987    1.1665   47.9860 C   0  0  1  0  0  0  0  0  0  0  0  0
   43.2346    0.5902   47.4771 C   0  0  0  0  0  0  0  0  0  0  0  0
   43.3236   -0.4560   46.4496 N   0  0  0  0  0  0  0  0  0  0  0  0
   44.1115   -0.5965   45.3485 C   0  0  0  0  0  0  0  0  0  0  0  0
   43.9584   -1.7766   44.7405 C   0  0  0  0  0  0  0  0  0  0  0  0
   42.9859   -2.4253   45.5433 C   0  0  0  0  0  0  0  0  0  0  0  0
   42.6341   -1.6141   46.5147 N   0  0  0  0  0  0  0  0  0  0  0  0
   42.4370   -3.7645   45.4262 C   0  0  0  0  0  0  0  0  0  0  0  0
   42.9639   -4.7523   46.2324 C   0  0  0  0  0  0  0  0  0  0  0  0
   42.4812   -6.0332   46.1638 C   0  0  0  0  0  0  0  0  0  0  0  0
   41.4847   -6.3837   45.2777 C   0  0  0  0  0  0  0  0  0  0  0  0
   40.9427   -5.3918   44.4677 C   0  0  0  0  0  0  0  0  0  0  0  0
   41.4079   -4.0945   44.5577 C   0  0  0  0  0  0  0  0  0  0  0  0
   39.6757   -5.7240   43.2257 S   0  0  0  0  0  0  0  0  0  0  0  0
   39.9623   -7.1318   42.1065 C   0  0  0  0  0  0  0  0  0  0  0  0
   38.6720   -7.5263   41.3490 C   0  0  0  0  0  0  0  0  0  0  0  0
   38.1512   -6.5144   40.3582 N   0  3  2  0  0  0  0  0  0  0  0  0
   37.2724   -5.4548   40.9850 C   0  0  0  0  0  0  0  0  0  0  0  0
   36.6084   -4.5881   39.8958 C   0  0  0  0  0  0  0  0  0  0  0  0
   35.6950   -5.4265   38.9672 C   0  0  0  0  0  0  0  0  0  0  0  0
   36.0044   -6.9397   39.0313 C   0  0  0  0  0  0  0  0  0  0  0  0
   37.5247   -7.1874   39.1492 C   0  0  0  0  0  0  0  0  0  0  0  0
   35.3398   -7.5149   40.1111 F   0  0  0  0  0  0  0  0  0  0  0  0
   35.5145   -7.5692   37.8914 F   0  0  0  0  0  0  0  0  0  0  0  0
   41.1179   -7.8633   45.3028 C   0  0  0  0  0  0  0  0  0  0  0  0
   39.7746   -8.0603   45.0051 F   0  0  0  0  0  0  0  0  0  0  0  0
   41.3886   -8.4116   46.5487 F   0  0  0  0  0  0  0  0  0  0  0  0
   41.8275   -8.6239   44.3776 F   0  0  0  0  0  0  0  0  0  0  0  0
   44.7330   -2.1549   43.4768 C   0  0  0  0  0  0  0  0  0  0  0  0
   45.1355   -0.9556   42.6973 N   0  0  0  0  0  0  0  0  0  0  0  0
   45.8818   -0.0434   43.5866 C   0  0  0  0  0  0  0  0  0  0  0  0
   45.0638    0.4555   44.8013 C   0  0  0  0  0  0  0  0  0  0  0  0
   45.8101   -1.0937   41.2091 S   0  0  0  0  0  0  0  0  0  0  0  0
   46.0124    0.2100   40.6589 O   0  0  0  0  0  0  0  0  0  0  0  0
   44.9306   -1.8944   40.4144 O   0  0  0  0  0  0  0  0  0  0  0  0
   47.4123   -1.9398   41.3058 C   0  0  0  0  0  0  0  0  0  0  0  0
   40.8189    0.7119   47.1552 O   0  0  0  0  0  0  0  0  0  0  0  0
   40.9537   -4.8956   50.7935 C   0  0  0  0  0  0  0  0  0  0  0  0
   41.9212    2.1656   47.9503 H   0  0  0  0  0  0  0  0  0  0  0  0
   41.0505   -4.0554   53.0048 H   0  0  0  0  0  0  0  0  0  0  0  0
   42.0507   -2.7743   52.8260 H   0  0  0  0  0  0  0  0  0  0  0  0
   40.4380   -2.5512   52.8108 H   0  0  0  0  0  0  0  0  0  0  0  0
   42.5506   -3.3599   49.4602 H   0  0  0  0  0  0  0  0  0  0  0  0
   43.2343   -3.3306   50.9697 H   0  0  0  0  0  0  0  0  0  0  0  0
   43.5268   -1.2487   49.7744 H   0  0  0  0  0  0  0  0  0  0  0  0
   42.7644   -1.0818   51.2217 H   0  0  0  0  0  0  0  0  0  0  0  0
   41.4705   -1.1369   48.7725 H   0  0  0  0  0  0  0  0  0  0  0  0
   39.4633   -0.6992   49.7627 H   0  0  0  0  0  0  0  0  0  0  0  0
   40.2356   -0.7529   51.2154 H   0  0  0  0  0  0  0  0  0  0  0  0
   39.1520   -2.8108   50.9009 H   0  0  0  0  0  0  0  0  0  0  0  0
   39.8910   -2.9791   49.4299 H   0  0  0  0  0  0  0  0  0  0  0  0
   42.4770    0.9921   49.9854 H   0  0  0  0  0  0  0  0  0  0  0  0
   40.8311    1.1198   49.7525 H   0  0  0  0  0  0  0  0  0  0  0  0
   43.7020    0.2264   48.2828 H   0  0  0  0  0  0  0  0  0  0  0  0
   43.6137    1.3759   46.9884 H   0  0  0  0  0  0  0  0  0  0  0  0
   43.7020   -4.5325   46.8703 H   0  0  0  0  0  0  0  0  0  0  0  0
   42.8611   -6.7308   46.7714 H   0  0  0  0  0  0  0  0  0  0  0  0
   40.9965   -3.3829   43.9882 H   0  0  0  0  0  0  0  0  0  0  0  0
   40.2802   -7.9145   42.6415 H   0  0  0  0  0  0  0  0  0  0  0  0
   40.6499   -6.8615   41.4325 H   0  0  0  0  0  0  0  0  0  0  0  0
   37.9557   -7.6909   42.0271 H   0  0  0  0  0  0  0  0  0  0  0  0
   38.9129   -8.3321   40.8078 H   0  0  0  0  0  0  0  0  0  0  0  0
   38.8848   -6.0737   40.0446 H   0  0  0  0  0  0  0  0  0  0  0  0
   37.8287   -4.8728   41.5782 H   0  0  0  0  0  0  0  0  0  0  0  0
   36.5565   -5.9040   41.5195 H   0  0  0  0  0  0  0  0  0  0  0  0
   37.3222   -4.1547   39.3457 H   0  0  0  0  0  0  0  0  0  0  0  0
   36.0400   -3.9020   40.3499 H   0  0  0  0  0  0  0  0  0  0  0  0
   35.8187   -5.1120   38.0260 H   0  0  0  0  0  0  0  0  0  0  0  0
   34.7527   -5.2994   39.2769 H   0  0  0  0  0  0  0  0  0  0  0  0
   37.6842   -8.1724   39.2144 H   0  0  0  0  0  0  0  0  0  0  0  0
   37.9517   -6.7919   38.3360 H   0  0  0  0  0  0  0  0  0  0  0  0
   44.1566   -2.7379   42.9043 H   0  0  0  0  0  0  0  0  0  0  0  0
   45.5639   -2.6373   43.7542 H   0  0  0  0  0  0  0  0  0  0  0  0
   46.1735    0.7503   43.0528 H   0  0  0  0  0  0  0  0  0  0  0  0
   46.6547   -0.5622   43.9520 H   0  0  0  0  0  0  0  0  0  0  0  0
   45.6975    0.7224   45.5275 H   0  0  0  0  0  0  0  0  0  0  0  0
   44.5097    1.2277   44.4905 H   0  0  0  0  0  0  0  0  0  0  0  0
   47.3618   -2.7931   40.7868 H   0  0  0  0  0  0  0  0  0  0  0  0
   48.1270   -1.3546   40.9228 H   0  0  0  0  0  0  0  0  0  0  0  0
   47.6313   -2.1380   42.2612 H   0  0  0  0  0  0  0  0  0  0  0  0
   40.8589    1.1272   46.2400 H   0  0  0  0  0  0  0  0  0  0  0  0
   41.7352   -5.2572   50.2851 H   0  0  0  0  0  0  0  0  0  0  0  0
   40.8783   -5.3644   51.6735 H   0  0  0  0  0  0  0  0  0  0  0  0
   40.1135   -5.0447   50.2722 H   0  0  0  0  0  0  0  0  0  0  0  0
  1  2  1  0  0  0  0
  1 48  1  0  0  0  0
  1 49  1  0  0  0  0
  1 50  1  0  0  0  0
  2  3  1  0  0  0  0
  2  7  1  0  0  0  0
  2 46  1  0  0  0  0
  3  4  1  0  0  0  0
  3 51  1  0  0  0  0
  3 52  1  0  0  0  0
  4  5  1  0  0  0  0
  4 53  1  0  0  0  0
  4 54  1  0  0  0  0
  5  6  1  0  0  0  0
  5  8  1  0  0  0  0
  5 55  1  0  0  0  0
  6  7  1  0  0  0  0
  6 56  1  0  0  0  0
  6 57  1  0  0  0  0
  7 58  1  0  0  0  0
  7 59  1  0  0  0  0
  8  9  1  0  0  0  0
  8 60  1  0  0  0  0
  8 61  1  0  0  0  0
  9 10  1  0  0  0  0
  9 45  1  0  0  0  0
  9 47  1  6  0  0  0
 10 11  1  0  0  0  0
 10 62  1  0  0  0  0
 10 63  1  0  0  0  0
 11 12  1  0  0  0  0
 11 15  1  0  0  0  0
 12 13  2  0  0  0  0
 12 40  1  0  0  0  0
 13 14  1  0  0  0  0
 13 37  1  0  0  0  0
 14 15  2  0  0  0  0
 14 16  1  0  0  0  0
 16 17  2  0  0  0  0
 16 21  1  0  0  0  0
 17 18  1  0  0  0  0
 17 64  1  0  0  0  0
 18 19  2  0  0  0  0
 18 65  1  0  0  0  0
 19 20  1  0  0  0  0
 19 33  1  0  0  0  0
 20 21  2  0  0  0  0
 20 22  1  0  0  0  0
 21 66  1  0  0  0  0
 22 23  1  0  0  0  0
 23 24  1  0  0  0  0
 23 67  1  0  0  0  0
 23 68  1  0  0  0  0
 24 25  1  0  0  0  0
 24 69  1  0  0  0  0
 24 70  1  0  0  0  0
 25 26  1  0  0  0  0
 25 30  1  0  0  0  0
 25 71  1  6  0  0  0
 26 27  1  0  0  0  0
 26 72  1  0  0  0  0
 26 73  1  0  0  0  0
 27 28  1  0  0  0  0
 27 74  1  0  0  0  0
 27 75  1  0  0  0  0
 28 29  1  0  0  0  0
 28 76  1  0  0  0  0
 28 77  1  0  0  0  0
 29 30  1  0  0  0  0
 29 31  1  0  0  0  0
 29 32  1  0  0  0  0
 30 78  1  0  0  0  0
 30 79  1  0  0  0  0
 33 34  1  0  0  0  0
 33 35  1  0  0  0  0
 33 36  1  0  0  0  0
 37 38  1  0  0  0  0
 37 80  1  0  0  0  0
 37 81  1  0  0  0  0
 38 39  1  0  0  0  0
 38 41  1  0  0  0  0
 39 40  1  0  0  0  0
 39 82  1  0  0  0  0
 39 83  1  0  0  0  0
 40 84  1  0  0  0  0
 40 85  1  0  0  0  0
 41 42  2  0  0  0  0
 41 43  2  0  0  0  0
 41 44  1  0  0  0  0
 44 86  1  0  0  0  0
 44 87  1  0  0  0  0
 44 88  1  0  0  0  0
 45 89  1  0  0  0  0
 46 90  1  0  0  0  0
 46 91  1  0  0  0  0
 46 92  1  0  0  0  0
M  CHG  2   5   1  25   1
M  END
