CatS_10:1_D
 OpenBabel12041818463D

 95100  0  0  0  0  0  0  0  0999 V2000
   38.1370   -4.5379   39.5642 C   0  0  0  0  0  0  0  0  0  0  0  0
   37.3654   -4.5665   41.2048 S   0  0  0  0  0  0  0  0  0  0  0  0
   36.1982   -5.3848   41.1510 O   0  0  0  0  0  0  0  0  0  0  0  0
   37.2152   -3.2188   41.6487 O   0  0  0  0  0  0  0  0  0  0  0  0
   38.3910   -5.2888   42.2329 N   0  0  0  0  0  0  0  0  0  0  0  0
   38.7092   -6.6843   41.8648 C   0  0  0  0  0  0  0  0  0  0  0  0
   39.3439   -7.4680   43.0341 C   0  0  0  0  0  0  0  0  0  0  0  0
   40.4562   -6.6585   43.6744 C   0  0  0  0  0  0  0  0  0  0  0  0
   40.5898   -5.3474   43.4606 C   0  0  0  0  0  0  0  0  0  0  0  0
   41.7352   -5.0043   44.2200 C   0  0  0  0  0  0  0  0  0  0  0  0
   42.1743   -6.0910   44.8144 N   0  0  0  0  0  0  0  0  0  0  0  0
   41.4080   -7.1564   44.5017 N   0  0  0  0  0  0  0  0  0  0  0  0
   41.6971   -8.5400   44.8968 C   0  0  0  0  0  0  0  0  0  0  0  0
   41.5713   -8.7774   46.4122 C   0  0  0  0  0  0  0  0  0  0  0  0
   40.1075   -9.0202   46.8396 C   0  0  0  0  0  0  0  0  0  0  0  0
   39.6008  -10.3947   46.4747 N   0  3  1  0  0  0  0  0  0  0  0  0
   39.0859  -10.4640   45.0582 C   0  0  0  0  0  0  0  0  0  0  0  0
   38.4273  -11.8312   44.7921 C   0  0  0  0  0  0  0  0  0  0  0  0
   39.4429  -12.9644   45.0553 C   0  0  1  0  0  0  0  0  0  0  0  0
   39.9607  -12.8761   46.5063 C   0  0  0  0  0  0  0  0  0  0  0  0
   40.5943  -11.4921   46.7654 C   0  0  0  0  0  0  0  0  0  0  0  0
   38.9943  -14.3376   44.7607 N   0  0  0  0  0  0  0  0  0  0  0  0
   37.5829  -14.7164   44.8817 C   0  0  0  0  0  0  0  0  0  0  0  0
   37.7071  -16.2504   44.8495 C   0  0  0  0  0  0  0  0  0  0  0  0
   39.0274  -16.5598   44.1239 C   0  0  0  0  0  0  0  0  0  0  0  0
   39.8241  -15.3005   44.3344 C   0  0  0  0  0  0  0  0  0  0  0  0
   41.0294  -15.2096   44.1484 O   0  0  0  0  0  0  0  0  0  0  0  0
   42.4238   -3.7330   44.3614 C   0  0  0  0  0  0  0  0  0  0  0  0
   42.0785   -2.7644   45.2908 C   0  0  0  0  0  0  0  0  0  0  0  0
   42.7863   -1.5868   45.3564 C   0  0  0  0  0  0  0  0  0  0  0  0
   43.8449   -1.3607   44.5015 C   0  0  0  0  0  0  0  0  0  0  0  0
   44.2035   -2.3134   43.5714 C   0  0  0  0  0  0  0  0  0  0  0  0
   43.4868   -3.4874   43.5143 C   0  0  0  0  0  0  0  0  0  0  0  0
   45.3763   -2.0432   42.6357 C   0  0  0  0  0  0  0  0  0  0  0  0
   44.9644   -1.6782   41.1958 C   0  0  0  0  0  0  0  0  0  0  0  0
   46.1223   -1.0981   40.3596 C   0  0  0  0  0  0  0  0  0  0  0  0
   47.1967   -2.1267   40.0947 N   0  3  0  0  0  0  0  0  0  0  0  0
   48.5774   -1.5207   40.1008 C   0  0  0  0  0  0  0  0  0  0  0  0
   49.6546   -2.6206   39.9983 C   0  0  0  0  0  0  0  0  0  0  0  0
   49.4233   -3.4813   38.7406 C   0  0  0  0  0  0  0  0  0  0  0  0
   48.0075   -4.0849   38.7383 C   0  0  0  0  0  0  0  0  0  0  0  0
   46.9531   -2.9667   38.8626 C   0  0  0  0  0  0  0  0  0  0  0  0
   49.5946   -2.7042   37.6016 F   0  0  0  0  0  0  0  0  0  0  0  0
   50.3646   -4.5035   38.6926 F   0  0  0  0  0  0  0  0  0  0  0  0
   44.7278    0.1346   44.5975 Cl  0  0  0  0  0  0  0  0  0  0  0  0
   39.6490   -4.5697   42.5487 C   0  0  0  0  0  0  0  0  0  0  0  0
   39.0367   -4.9709   39.6199 H   0  0  0  0  0  0  0  0  0  0  0  0
   37.5639   -5.0347   38.9125 H   0  0  0  0  0  0  0  0  0  0  0  0
   38.2361   -3.5920   39.2551 H   0  0  0  0  0  0  0  0  0  0  0  0
   39.3471   -6.6779   41.0947 H   0  0  0  0  0  0  0  0  0  0  0  0
   37.8526   -7.1396   41.6221 H   0  0  0  0  0  0  0  0  0  0  0  0
   39.7167   -8.3300   42.6904 H   0  0  0  0  0  0  0  0  0  0  0  0
   38.6405   -7.6493   43.7212 H   0  0  0  0  0  0  0  0  0  0  0  0
   42.6296   -8.7644   44.6139 H   0  0  0  0  0  0  0  0  0  0  0  0
   41.0201   -9.1240   44.4490 H   0  0  0  0  0  0  0  0  0  0  0  0
   41.9231   -7.9763   46.8963 H   0  0  0  0  0  0  0  0  0  0  0  0
   42.0986   -9.5956   46.6414 H   0  0  0  0  0  0  0  0  0  0  0  0
   39.5279   -8.3369   46.3955 H   0  0  0  0  0  0  0  0  0  0  0  0
   40.0736   -8.9477   47.8364 H   0  0  0  0  0  0  0  0  0  0  0  0
   38.8901  -10.5608   47.0196 H   0  0  0  0  0  0  0  0  0  0  0  0
   39.8468  -10.3328   44.4228 H   0  0  0  0  0  0  0  0  0  0  0  0
   38.4032   -9.7454   44.9261 H   0  0  0  0  0  0  0  0  0  0  0  0
   38.1190  -11.8729   43.8417 H   0  0  0  0  0  0  0  0  0  0  0  0
   37.6445  -11.9438   45.4040 H   0  0  0  0  0  0  0  0  0  0  0  0
   40.1725  -12.8008   44.3913 H   0  0  0  0  0  0  0  0  0  0  0  0
   40.6457  -13.5888   46.6575 H   0  0  0  0  0  0  0  0  0  0  0  0
   39.1930  -13.0039   47.1340 H   0  0  0  0  0  0  0  0  0  0  0  0
   40.8824  -11.4328   47.7211 H   0  0  0  0  0  0  0  0  0  0  0  0
   41.3847  -11.3811   46.1628 H   0  0  0  0  0  0  0  0  0  0  0  0
   37.0382  -14.3703   44.1178 H   0  0  0  0  0  0  0  0  0  0  0  0
   37.1189  -14.3514   45.6888 H   0  0  0  0  0  0  0  0  0  0  0  0
   36.9354  -16.6520   44.3564 H   0  0  0  0  0  0  0  0  0  0  0  0
   37.7014  -16.6355   45.7724 H   0  0  0  0  0  0  0  0  0  0  0  0
   38.8739  -16.7342   43.1513 H   0  0  0  0  0  0  0  0  0  0  0  0
   39.4857  -17.3798   44.4667 H   0  0  0  0  0  0  0  0  0  0  0  0
   41.3132   -2.9221   45.9150 H   0  0  0  0  0  0  0  0  0  0  0  0
   42.5319   -0.8906   46.0277 H   0  0  0  0  0  0  0  0  0  0  0  0
   43.7430   -4.1812   42.8412 H   0  0  0  0  0  0  0  0  0  0  0  0
   45.9483   -2.8628   42.6028 H   0  0  0  0  0  0  0  0  0  0  0  0
   45.8610   -1.2501   43.0045 H   0  0  0  0  0  0  0  0  0  0  0  0
   44.2288   -1.0021   41.2362 H   0  0  0  0  0  0  0  0  0  0  0  0
   44.6718   -2.5232   40.7482 H   0  0  0  0  0  0  0  0  0  0  0  0
   46.5244   -0.3266   40.8529 H   0  0  0  0  0  0  0  0  0  0  0  0
   45.7514   -0.8051   39.4782 H   0  0  0  0  0  0  0  0  0  0  0  0
   47.1769   -2.7038   40.8000 H   0  0  0  0  0  0  0  0  0  0  0  0
   48.7085   -1.0069   40.9487 H   0  0  0  0  0  0  0  0  0  0  0  0
   48.6651   -0.9114   39.3127 H   0  0  0  0  0  0  0  0  0  0  0  0
   49.6130   -3.2018   40.8110 H   0  0  0  0  0  0  0  0  0  0  0  0
   50.5545   -2.1891   39.9344 H   0  0  0  0  0  0  0  0  0  0  0  0
   47.9148   -4.7170   39.5075 H   0  0  0  0  0  0  0  0  0  0  0  0
   47.8627   -4.5747   37.8786 H   0  0  0  0  0  0  0  0  0  0  0  0
   46.9961   -2.3818   38.0526 H   0  0  0  0  0  0  0  0  0  0  0  0
   46.0501   -3.3894   38.9390 H   0  0  0  0  0  0  0  0  0  0  0  0
   39.4163   -3.7055   42.9949 H   0  0  0  0  0  0  0  0  0  0  0  0
   40.1312   -4.4332   41.6833 H   0  0  0  0  0  0  0  0  0  0  0  0
  1  2  1  0  0  0  0
  1 47  1  0  0  0  0
  1 48  1  0  0  0  0
  1 49  1  0  0  0  0
  2  3  2  0  0  0  0
  2  4  2  0  0  0  0
  2  5  1  0  0  0  0
  5  6  1  0  0  0  0
  5 46  1  0  0  0  0
  6  7  1  0  0  0  0
  6 50  1  0  0  0  0
  6 51  1  0  0  0  0
  7  8  1  0  0  0  0
  7 52  1  0  0  0  0
  7 53  1  0  0  0  0
  8  9  2  0  0  0  0
  8 12  1  0  0  0  0
  9 10  1  0  0  0  0
  9 46  1  0  0  0  0
 10 11  2  0  0  0  0
 10 28  1  0  0  0  0
 11 12  1  0  0  0  0
 12 13  1  0  0  0  0
 13 14  1  0  0  0  0
 13 54  1  0  0  0  0
 13 55  1  0  0  0  0
 14 15  1  0  0  0  0
 14 56  1  0  0  0  0
 14 57  1  0  0  0  0
 15 16  1  0  0  0  0
 15 58  1  0  0  0  0
 15 59  1  0  0  0  0
 16 17  1  0  0  0  0
 16 21  1  0  0  0  0
 16 60  1  1  0  0  0
 17 18  1  0  0  0  0
 17 61  1  0  0  0  0
 17 62  1  0  0  0  0
 18 19  1  0  0  0  0
 18 63  1  0  0  0  0
 18 64  1  0  0  0  0
 19 20  1  0  0  0  0
 19 22  1  0  0  0  0
 19 65  1  6  0  0  0
 20 21  1  0  0  0  0
 20 66  1  0  0  0  0
 20 67  1  0  0  0  0
 21 68  1  0  0  0  0
 21 69  1  0  0  0  0
 22 23  1  0  0  0  0
 22 26  1  0  0  0  0
 23 24  1  0  0  0  0
 23 70  1  0  0  0  0
 23 71  1  0  0  0  0
 24 25  1  0  0  0  0
 24 72  1  0  0  0  0
 24 73  1  0  0  0  0
 25 26  1  0  0  0  0
 25 74  1  0  0  0  0
 25 75  1  0  0  0  0
 26 27  2  0  0  0  0
 28 29  2  0  0  0  0
 28 33  1  0  0  0  0
 29 30  1  0  0  0  0
 29 76  1  0  0  0  0
 30 31  2  0  0  0  0
 30 77  1  0  0  0  0
 31 32  1  0  0  0  0
 31 45  1  0  0  0  0
 32 33  2  0  0  0  0
 32 34  1  0  0  0  0
 33 78  1  0  0  0  0
 34 35  1  0  0  0  0
 34 79  1  0  0  0  0
 34 80  1  0  0  0  0
 35 36  1  0  0  0  0
 35 81  1  0  0  0  0
 35 82  1  0  0  0  0
 36 37  1  0  0  0  0
 36 83  1  0  0  0  0
 36 84  1  0  0  0  0
 37 38  1  0  0  0  0
 37 42  1  0  0  0  0
 37 85  1  0  0  0  0
 38 39  1  0  0  0  0
 38 86  1  0  0  0  0
 38 87  1  0  0  0  0
 39 40  1  0  0  0  0
 39 88  1  0  0  0  0
 39 89  1  0  0  0  0
 40 41  1  0  0  0  0
 40 43  1  0  0  0  0
 40 44  1  0  0  0  0
 41 42  1  0  0  0  0
 41 90  1  0  0  0  0
 41 91  1  0  0  0  0
 42 92  1  0  0  0  0
 42 93  1  0  0  0  0
 46 94  1  0  0  0  0
 46 95  1  0  0  0  0
M  CHG  2  16   1  37   1
M  END
