CatS_219:1_D
 OpenBabel12041818463D

 81 85  0  0  1  0  0  0  0  0999 V2000
   42.5921   -1.5597   45.0996 C   0  0  0  0  0  0  0  0  0  0  0  0
   43.5516   -2.8705   44.2942 S   0  0  0  0  0  0  0  0  0  0  0  0
   44.8418   -2.9333   44.9054 O   0  0  0  0  0  0  0  0  0  0  0  0
   43.5857   -2.6047   42.8895 O   0  0  0  0  0  0  0  0  0  0  0  0
   42.8143   -4.3116   44.5055 N   0  0  0  0  0  0  0  0  0  0  0  0
   42.7147   -4.7002   45.9252 C   0  0  0  0  0  0  0  0  0  0  0  0
   42.3764   -6.1942   46.1300 C   0  0  0  0  0  0  0  0  0  0  0  0
   41.3081   -6.7034   45.1709 C   0  0  0  0  0  0  0  0  0  0  0  0
   40.9402   -5.9517   44.1299 C   0  0  0  0  0  0  0  0  0  0  0  0
   39.9584   -6.7396   43.4869 C   0  0  0  0  0  0  0  0  0  0  0  0
   39.8121   -7.8605   44.1618 N   0  0  0  0  0  0  0  0  0  0  0  0
   40.6487   -7.8993   45.2295 N   0  0  0  0  0  0  0  0  0  0  0  0
   40.7834   -9.0730   46.1200 C   0  0  0  0  0  0  0  0  0  0  0  0
   39.6028  -10.0586   46.1649 C   0  0  2  0  0  0  0  0  0  0  0  0
   39.3999  -10.8537   44.8626 C   0  0  0  0  0  0  0  0  0  0  0  0
   38.9146  -12.2582   45.1373 N   0  3  0  0  0  0  0  0  0  0  0  0
   37.6574  -12.5622   44.3638 C   0  0  0  0  0  0  0  0  0  0  0  0
   37.9971  -12.8875   42.8955 C   0  0  0  0  0  0  0  0  0  0  0  0
   38.9559  -13.9604   42.8252 O   0  0  0  0  0  0  0  0  0  0  0  0
   40.1976  -13.6239   43.4688 C   0  0  0  0  0  0  0  0  0  0  0  0
   39.9707  -13.3263   44.9625 C   0  0  0  0  0  0  0  0  0  0  0  0
   38.3950   -9.3654   46.5127 O   0  0  0  0  0  0  0  0  0  0  0  0
   39.1978   -6.4108   42.2944 C   0  0  0  0  0  0  0  0  0  0  0  0
   38.2937   -5.3641   42.2958 C   0  0  0  0  0  0  0  0  0  0  0  0
   37.5624   -5.0642   41.1716 C   0  0  0  0  0  0  0  0  0  0  0  0
   37.6926   -5.8040   40.0132 C   0  0  0  0  0  0  0  0  0  0  0  0
   38.6068   -6.8500   40.0162 C   0  0  0  0  0  0  0  0  0  0  0  0
   39.3556   -7.1430   41.1342 C   0  0  0  0  0  0  0  0  0  0  0  0
   38.8555   -7.8938   38.5733 S   0  0  0  0  0  0  0  0  0  0  0  0
   40.5439   -8.5352   38.7375 C   0  0  0  0  0  0  0  0  0  0  0  0
   41.5707   -7.5973   38.0677 C   0  0  0  0  0  0  0  0  0  0  0  0
   42.1295   -8.1310   36.7747 N   0  3  2  0  0  0  0  0  0  0  0  0
   42.3377   -9.6150   36.7962 C   0  0  0  0  0  0  0  0  0  0  0  0
   43.3087   -9.8696   35.6283 C   0  0  0  0  0  0  0  0  0  0  0  0
   43.9573   -8.5080   35.2953 C   0  0  1  0  0  0  0  0  0  0  0  0
   43.4205   -7.5079   36.3335 C   0  0  0  0  0  0  0  0  0  0  0  0
   45.3435   -8.5914   35.3822 F   0  0  0  0  0  0  0  0  0  0  0  0
   36.8092   -5.4086   38.8267 C   0  0  0  0  0  0  0  0  0  0  0  0
   35.6042   -4.8116   39.1934 F   0  0  0  0  0  0  0  0  0  0  0  0
   37.4622   -4.5085   37.9915 F   0  0  0  0  0  0  0  0  0  0  0  0
   36.4815   -6.5224   38.0591 F   0  0  0  0  0  0  0  0  0  0  0  0
   41.5099   -4.5627   43.8499 C   0  0  0  0  0  0  0  0  0  0  0  0
   39.8314  -10.7325   46.8676 H   0  0  0  0  0  0  0  0  0  0  0  0
   43.7349   -8.2231   34.3630 H   0  0  0  0  0  0  0  0  0  0  0  0
   41.7835   -1.9640   45.5271 H   0  0  0  0  0  0  0  0  0  0  0  0
   43.1519   -1.1103   45.7957 H   0  0  0  0  0  0  0  0  0  0  0  0
   42.3115   -0.8819   44.4200 H   0  0  0  0  0  0  0  0  0  0  0  0
   42.0008   -4.1488   46.3569 H   0  0  0  0  0  0  0  0  0  0  0  0
   43.6118   -4.5426   46.3378 H   0  0  0  0  0  0  0  0  0  0  0  0
   42.0531   -6.3229   47.0674 H   0  0  0  0  0  0  0  0  0  0  0  0
   43.2102   -6.7155   45.9483 H   0  0  0  0  0  0  0  0  0  0  0  0
   40.9302   -8.7327   47.0487 H   0  0  0  0  0  0  0  0  0  0  0  0
   41.5435   -9.5998   45.7396 H   0  0  0  0  0  0  0  0  0  0  0  0
   40.2688  -10.8986   44.3696 H   0  0  0  0  0  0  0  0  0  0  0  0
   38.7055  -10.3857   44.3160 H   0  0  0  0  0  0  0  0  0  0  0  0
   38.6853  -12.2804   46.0198 H   0  0  0  0  0  0  0  0  0  0  0  0
   37.0487  -11.7695   44.3963 H   0  0  0  0  0  0  0  0  0  0  0  0
   37.2067  -13.3545   44.7750 H   0  0  0  0  0  0  0  0  0  0  0  0
   38.3773  -12.0737   42.4560 H   0  0  0  0  0  0  0  0  0  0  0  0
   37.1612  -13.1712   42.4255 H   0  0  0  0  0  0  0  0  0  0  0  0
   40.5908  -12.8178   43.0265 H   0  0  0  0  0  0  0  0  0  0  0  0
   40.8233  -14.3997   43.3874 H   0  0  0  0  0  0  0  0  0  0  0  0
   39.6752  -14.1618   45.4257 H   0  0  0  0  0  0  0  0  0  0  0  0
   40.8286  -12.9994   45.3590 H   0  0  0  0  0  0  0  0  0  0  0  0
   38.1506   -9.5114   47.4773 H   0  0  0  0  0  0  0  0  0  0  0  0
   38.1706   -4.8190   43.1251 H   0  0  0  0  0  0  0  0  0  0  0  0
   36.9235   -4.2952   41.1931 H   0  0  0  0  0  0  0  0  0  0  0  0
   40.0184   -7.8912   41.1056 H   0  0  0  0  0  0  0  0  0  0  0  0
   40.5941   -9.4367   38.3077 H   0  0  0  0  0  0  0  0  0  0  0  0
   40.7637   -8.5961   39.7111 H   0  0  0  0  0  0  0  0  0  0  0  0
   42.3279   -7.4505   38.7043 H   0  0  0  0  0  0  0  0  0  0  0  0
   41.0892   -6.7491   37.8469 H   0  0  0  0  0  0  0  0  0  0  0  0
   41.5156   -7.9700   36.1190 H   0  0  0  0  0  0  0  0  0  0  0  0
   41.4741  -10.0993   36.6563 H   0  0  0  0  0  0  0  0  0  0  0  0
   42.6946   -9.9418   37.6713 H   0  0  0  0  0  0  0  0  0  0  0  0
   42.8129  -10.2227   34.8351 H   0  0  0  0  0  0  0  0  0  0  0  0
   44.0005  -10.5488   35.8739 H   0  0  0  0  0  0  0  0  0  0  0  0
   44.0538   -7.4093   37.1011 H   0  0  0  0  0  0  0  0  0  0  0  0
   43.3047   -6.5857   35.9645 H   0  0  0  0  0  0  0  0  0  0  0  0
   41.6263   -4.4596   42.8621 H   0  0  0  0  0  0  0  0  0  0  0  0
   40.8615   -3.9008   44.2260 H   0  0  0  0  0  0  0  0  0  0  0  0
  1  2  1  0  0  0  0
  1 45  1  0  0  0  0
  1 46  1  0  0  0  0
  1 47  1  0  0  0  0
  2  3  2  0  0  0  0
  2  4  2  0  0  0  0
  2  5  1  0  0  0  0
  5  6  1  0  0  0  0
  5 42  1  0  0  0  0
  6  7  1  0  0  0  0
  6 48  1  0  0  0  0
  6 49  1  0  0  0  0
  7  8  1  0  0  0  0
  7 50  1  0  0  0  0
  7 51  1  0  0  0  0
  8  9  2  0  0  0  0
  8 12  1  0  0  0  0
  9 10  1  0  0  0  0
  9 42  1  0  0  0  0
 10 11  2  0  0  0  0
 10 23  1  0  0  0  0
 11 12  1  0  0  0  0
 12 13  1  0  0  0  0
 13 14  1  0  0  0  0
 13 52  1  0  0  0  0
 13 53  1  0  0  0  0
 14 15  1  0  0  0  0
 14 22  1  0  0  0  0
 14 43  1  1  0  0  0
 15 16  1  0  0  0  0
 15 54  1  0  0  0  0
 15 55  1  0  0  0  0
 16 17  1  0  0  0  0
 16 21  1  0  0  0  0
 16 56  1  0  0  0  0
 17 18  1  0  0  0  0
 17 57  1  0  0  0  0
 17 58  1  0  0  0  0
 18 19  1  0  0  0  0
 18 59  1  0  0  0  0
 18 60  1  0  0  0  0
 19 20  1  0  0  0  0
 20 21  1  0  0  0  0
 20 61  1  0  0  0  0
 20 62  1  0  0  0  0
 21 63  1  0  0  0  0
 21 64  1  0  0  0  0
 22 65  1  0  0  0  0
 23 24  2  0  0  0  0
 23 28  1  0  0  0  0
 24 25  1  0  0  0  0
 24 66  1  0  0  0  0
 25 26  2  0  0  0  0
 25 67  1  0  0  0  0
 26 27  1  0  0  0  0
 26 38  1  0  0  0  0
 27 28  2  0  0  0  0
 27 29  1  0  0  0  0
 28 68  1  0  0  0  0
 29 30  1  0  0  0  0
 30 31  1  0  0  0  0
 30 69  1  0  0  0  0
 30 70  1  0  0  0  0
 31 32  1  0  0  0  0
 31 71  1  0  0  0  0
 31 72  1  0  0  0  0
 32 33  1  0  0  0  0
 32 36  1  0  0  0  0
 32 73  1  6  0  0  0
 33 34  1  0  0  0  0
 33 74  1  0  0  0  0
 33 75  1  0  0  0  0
 34 35  1  0  0  0  0
 34 76  1  0  0  0  0
 34 77  1  0  0  0  0
 35 36  1  0  0  0  0
 35 37  1  0  0  0  0
 35 44  1  6  0  0  0
 36 78  1  0  0  0  0
 36 79  1  0  0  0  0
 38 39  1  0  0  0  0
 38 40  1  0  0  0  0
 38 41  1  0  0  0  0
 42 80  1  0  0  0  0
 42 81  1  0  0  0  0
M  CHG  2  16   1  32   1
M  END
