CatS_114:1_D
 OpenBabel12041818463D

 95100  0  0  1  0  0  0  0  0999 V2000
   36.8818   -4.1439   41.8260 C   0  0  0  0  0  0  0  0  0  0  0  0
   38.4341   -4.6048   40.9989 S   0  0  0  0  0  0  0  0  0  0  0  0
   38.1381   -5.5162   39.9449 O   0  0  0  0  0  0  0  0  0  0  0  0
   39.0779   -3.4133   40.5566 O   0  0  0  0  0  0  0  0  0  0  0  0
   39.4414   -5.3386   42.0567 N   0  0  0  0  0  0  0  0  0  0  0  0
   38.8652   -6.5378   42.7061 C   0  0  0  0  0  0  0  0  0  0  0  0
   39.9295   -7.4573   43.3526 C   0  0  0  0  0  0  0  0  0  0  0  0
   40.9915   -6.6532   44.0792 C   0  0  0  0  0  0  0  0  0  0  0  0
   41.0872   -5.3274   43.9492 C   0  0  0  0  0  0  0  0  0  0  0  0
   42.1934   -4.9949   44.7665 C   0  0  0  0  0  0  0  0  0  0  0  0
   42.6675   -6.1029   45.2934 N   0  0  0  0  0  0  0  0  0  0  0  0
   41.9422   -7.1715   44.8973 N   0  0  0  0  0  0  0  0  0  0  0  0
   42.1813   -8.5535   45.3371 C   0  0  0  0  0  0  0  0  0  0  0  0
   41.0053   -9.0271   46.2080 C   0  0  1  0  0  0  0  0  0  0  0  0
   41.3807  -10.3253   46.9508 C   0  0  0  0  0  0  0  0  0  0  0  0
   40.7422  -11.5599   46.3637 N   0  3  0  0  0  0  0  0  0  0  0  0
   39.3832  -11.2708   45.7880 C   0  0  0  0  0  0  0  0  0  0  0  0
   38.8425  -12.5210   45.0667 C   0  0  0  0  0  0  0  0  0  0  0  0
   38.8347  -13.7438   45.8984 N   0  0  0  0  0  0  0  0  0  0  0  0
   40.1133  -13.9676   46.6061 C   0  0  0  0  0  0  0  0  0  0  0  0
   40.6987  -12.7297   47.3115 C   0  0  0  0  0  0  0  0  0  0  0  0
   38.0515  -14.8468   45.5112 C   0  0  0  0  0  0  0  0  0  0  0  0
   38.5763  -16.1310   45.5263 C   0  0  0  0  0  0  0  0  0  0  0  0
   37.8159  -17.2098   45.1446 C   0  0  0  0  0  0  0  0  0  0  0  0
   36.5135  -17.0253   44.7411 C   0  0  0  0  0  0  0  0  0  0  0  0
   35.9749  -15.7589   44.7245 C   0  0  0  0  0  0  0  0  0  0  0  0
   36.7347  -14.6795   45.1079 C   0  0  0  0  0  0  0  0  0  0  0  0
   40.6361   -7.9920   47.1319 O   0  0  0  0  0  0  0  0  0  0  0  0
   42.7942   -3.6998   45.0291 C   0  0  0  0  0  0  0  0  0  0  0  0
   44.1376   -3.4426   44.8154 C   0  0  0  0  0  0  0  0  0  0  0  0
   44.6573   -2.1937   45.0706 C   0  0  0  0  0  0  0  0  0  0  0  0
   43.8619   -1.1642   45.5333 C   0  0  0  0  0  0  0  0  0  0  0  0
   42.5147   -1.4283   45.7378 C   0  0  0  0  0  0  0  0  0  0  0  0
   41.9924   -2.6758   45.4919 C   0  0  0  0  0  0  0  0  0  0  0  0
   41.3770   -0.1728   46.3392 S   0  0  0  0  0  0  0  0  0  0  0  0
   41.8392    0.1320   48.0678 C   0  0  0  0  0  0  0  0  0  0  0  0
   40.7557   -0.2812   49.0884 C   0  0  0  0  0  0  0  0  0  0  0  0
   40.8402   -1.6946   49.6101 N   0  3  1  0  0  0  0  0  0  0  0  0
   42.2211   -2.3008   49.5526 C   0  0  0  0  0  0  0  0  0  0  0  0
   42.1936   -3.8161   49.8773 C   0  0  0  0  0  0  0  0  0  0  0  0
   40.9717   -4.2113   50.7362 C   0  0  2  0  0  0  0  0  0  0  0  0
   40.6302   -3.0906   51.7337 C   0  0  0  0  0  0  0  0  0  0  0  0
   40.2035   -1.8116   50.9766 C   0  0  0  0  0  0  0  0  0  0  0  0
   41.2485   -5.3841   51.4300 F   0  0  0  0  0  0  0  0  0  0  0  0
   44.5298    0.1877   45.7797 C   0  0  0  0  0  0  0  0  0  0  0  0
   45.7597    0.2493   45.1336 F   0  0  0  0  0  0  0  0  0  0  0  0
   43.7504    1.2305   45.2906 F   0  0  0  0  0  0  0  0  0  0  0  0
   44.7650    0.4596   47.1245 F   0  0  0  0  0  0  0  0  0  0  0  0
   40.1229   -4.5173   43.0856 C   0  0  0  0  0  0  0  0  0  0  0  0
   40.2187   -9.2230   45.6225 H   0  0  0  0  0  0  0  0  0  0  0  0
   36.9275   -4.4255   42.7845 H   0  0  0  0  0  0  0  0  0  0  0  0
   36.7510   -3.1540   41.7716 H   0  0  0  0  0  0  0  0  0  0  0  0
   36.1130   -4.5990   41.3767 H   0  0  0  0  0  0  0  0  0  0  0  0
   38.3645   -7.0630   42.0180 H   0  0  0  0  0  0  0  0  0  0  0  0
   38.2680   -6.2171   43.4413 H   0  0  0  0  0  0  0  0  0  0  0  0
   40.3651   -8.0048   42.6380 H   0  0  0  0  0  0  0  0  0  0  0  0
   39.4722   -8.0458   44.0192 H   0  0  0  0  0  0  0  0  0  0  0  0
   43.0287   -8.5943   45.8665 H   0  0  0  0  0  0  0  0  0  0  0  0
   42.2616   -9.1479   44.5369 H   0  0  0  0  0  0  0  0  0  0  0  0
   41.0933  -10.2403   47.9048 H   0  0  0  0  0  0  0  0  0  0  0  0
   42.3706  -10.4379   46.8644 H   0  0  0  0  0  0  0  0  0  0  0  0
   41.2655  -11.8103   45.6611 H   0  0  0  0  0  0  0  0  0  0  0  0
   39.4508  -10.5134   45.1385 H   0  0  0  0  0  0  0  0  0  0  0  0
   38.7581  -11.0230   46.5281 H   0  0  0  0  0  0  0  0  0  0  0  0
   39.4102  -12.6902   44.2611 H   0  0  0  0  0  0  0  0  0  0  0  0
   37.8897  -12.3281   44.8322 H   0  0  0  0  0  0  0  0  0  0  0  0
   40.7843  -14.2930   45.9398 H   0  0  0  0  0  0  0  0  0  0  0  0
   39.9176  -14.6302   47.3290 H   0  0  0  0  0  0  0  0  0  0  0  0
   40.1297  -12.4964   48.1000 H   0  0  0  0  0  0  0  0  0  0  0  0
   41.6289  -12.9383   47.6134 H   0  0  0  0  0  0  0  0  0  0  0  0
   39.5217  -16.2735   45.8194 H   0  0  0  0  0  0  0  0  0  0  0  0
   38.2092  -18.1291   45.1600 H   0  0  0  0  0  0  0  0  0  0  0  0
   35.9598  -17.8093   44.4605 H   0  0  0  0  0  0  0  0  0  0  0  0
   35.0280  -15.6236   44.4328 H   0  0  0  0  0  0  0  0  0  0  0  0
   36.3338  -13.7634   45.0959 H   0  0  0  0  0  0  0  0  0  0  0  0
   39.8025   -7.5135   46.8354 H   0  0  0  0  0  0  0  0  0  0  0  0
   44.7342   -4.1687   44.4735 H   0  0  0  0  0  0  0  0  0  0  0  0
   45.6316   -2.0285   44.9176 H   0  0  0  0  0  0  0  0  0  0  0  0
   41.0194   -2.8437   45.6504 H   0  0  0  0  0  0  0  0  0  0  0  0
   42.0230    1.1088   48.1782 H   0  0  0  0  0  0  0  0  0  0  0  0
   42.6434   -0.4315   48.2564 H   0  0  0  0  0  0  0  0  0  0  0  0
   39.8633   -0.1668   48.6519 H   0  0  0  0  0  0  0  0  0  0  0  0
   40.8988    0.3067   49.8846 H   0  0  0  0  0  0  0  0  0  0  0  0
   40.3368   -2.1991   49.0416 H   0  0  0  0  0  0  0  0  0  0  0  0
   42.8091   -1.8354   50.2141 H   0  0  0  0  0  0  0  0  0  0  0  0
   42.5734   -2.1879   48.6235 H   0  0  0  0  0  0  0  0  0  0  0  0
   43.0285   -4.0552   50.3728 H   0  0  0  0  0  0  0  0  0  0  0  0
   42.1299   -4.3125   49.0115 H   0  0  0  0  0  0  0  0  0  0  0  0
   40.1876   -4.3549   50.1324 H   0  0  0  0  0  0  0  0  0  0  0  0
   41.4324   -2.8919   52.2966 H   0  0  0  0  0  0  0  0  0  0  0  0
   39.8739   -3.3911   52.3149 H   0  0  0  0  0  0  0  0  0  0  0  0
   39.2095   -1.8195   50.8670 H   0  0  0  0  0  0  0  0  0  0  0  0
   40.5104   -1.0285   51.5176 H   0  0  0  0  0  0  0  0  0  0  0  0
   39.4301   -4.1050   43.6772 H   0  0  0  0  0  0  0  0  0  0  0  0
   40.6610   -3.8231   42.6075 H   0  0  0  0  0  0  0  0  0  0  0  0
  1  2  1  0  0  0  0
  1 51  1  0  0  0  0
  1 52  1  0  0  0  0
  1 53  1  0  0  0  0
  2  3  2  0  0  0  0
  2  4  2  0  0  0  0
  2  5  1  0  0  0  0
  5  6  1  0  0  0  0
  5 49  1  0  0  0  0
  6  7  1  0  0  0  0
  6 54  1  0  0  0  0
  6 55  1  0  0  0  0
  7  8  1  0  0  0  0
  7 56  1  0  0  0  0
  7 57  1  0  0  0  0
  8  9  2  0  0  0  0
  8 12  1  0  0  0  0
  9 10  1  0  0  0  0
  9 49  1  0  0  0  0
 10 11  2  0  0  0  0
 10 29  1  0  0  0  0
 11 12  1  0  0  0  0
 12 13  1  0  0  0  0
 13 14  1  0  0  0  0
 13 58  1  0  0  0  0
 13 59  1  0  0  0  0
 14 15  1  0  0  0  0
 14 28  1  0  0  0  0
 14 50  1  6  0  0  0
 15 16  1  0  0  0  0
 15 60  1  0  0  0  0
 15 61  1  0  0  0  0
 16 17  1  0  0  0  0
 16 21  1  0  0  0  0
 16 62  1  0  0  0  0
 17 18  1  0  0  0  0
 17 63  1  0  0  0  0
 17 64  1  0  0  0  0
 18 19  1  0  0  0  0
 18 65  1  0  0  0  0
 18 66  1  0  0  0  0
 19 20  1  0  0  0  0
 19 22  1  0  0  0  0
 20 21  1  0  0  0  0
 20 67  1  0  0  0  0
 20 68  1  0  0  0  0
 21 69  1  0  0  0  0
 21 70  1  0  0  0  0
 22 23  2  0  0  0  0
 22 27  1  0  0  0  0
 23 24  1  0  0  0  0
 23 71  1  0  0  0  0
 24 25  2  0  0  0  0
 24 72  1  0  0  0  0
 25 26  1  0  0  0  0
 25 73  1  0  0  0  0
 26 27  2  0  0  0  0
 26 74  1  0  0  0  0
 27 75  1  0  0  0  0
 28 76  1  0  0  0  0
 29 30  2  0  0  0  0
 29 34  1  0  0  0  0
 30 31  1  0  0  0  0
 30 77  1  0  0  0  0
 31 32  2  0  0  0  0
 31 78  1  0  0  0  0
 32 33  1  0  0  0  0
 32 45  1  0  0  0  0
 33 34  2  0  0  0  0
 33 35  1  0  0  0  0
 34 79  1  0  0  0  0
 35 36  1  0  0  0  0
 36 37  1  0  0  0  0
 36 80  1  0  0  0  0
 36 81  1  0  0  0  0
 37 38  1  0  0  0  0
 37 82  1  0  0  0  0
 37 83  1  0  0  0  0
 38 39  1  0  0  0  0
 38 43  1  0  0  0  0
 38 84  1  6  0  0  0
 39 40  1  0  0  0  0
 39 85  1  0  0  0  0
 39 86  1  0  0  0  0
 40 41  1  0  0  0  0
 40 87  1  0  0  0  0
 40 88  1  0  0  0  0
 41 42  1  0  0  0  0
 41 44  1  0  0  0  0
 41 89  1  6  0  0  0
 42 43  1  0  0  0  0
 42 90  1  0  0  0  0
 42 91  1  0  0  0  0
 43 92  1  0  0  0  0
 43 93  1  0  0  0  0
 45 46  1  0  0  0  0
 45 47  1  0  0  0  0
 45 48  1  0  0  0  0
 49 94  1  0  0  0  0
 49 95  1  0  0  0  0
M  CHG  2  16   1  38   1
M  END
