CatS_97:1_D
 OpenBabel12041818463D

 90 95  0  0  1  0  0  0  0  0999 V2000
   38.0411   -4.7405   42.2672 C   0  0  0  0  0  0  0  0  0  0  0  0
   37.1186   -4.7922   41.2494 C   0  0  0  0  0  0  0  0  0  0  0  0
   37.2261   -5.7148   40.2295 C   0  0  0  0  0  0  0  0  0  0  0  0
   38.3010   -6.5926   40.2602 C   0  0  0  0  0  0  0  0  0  0  0  0
   39.2252   -6.5451   41.2800 C   0  0  0  0  0  0  0  0  0  0  0  0
   39.1097   -5.6196   42.3010 C   0  0  0  0  0  0  0  0  0  0  0  0
   40.0922   -5.5905   43.3733 C   0  0  0  0  0  0  0  0  0  0  0  0
   40.3578   -6.5645   44.3609 C   0  0  0  0  0  0  0  0  0  0  0  0
   41.3331   -6.0155   45.0962 C   0  0  0  0  0  0  0  0  0  0  0  0
   41.7181   -4.7915   44.6338 N   0  0  0  0  0  0  0  0  0  0  0  0
   40.9110   -4.5793   43.5665 N   0  0  0  0  0  0  0  0  0  0  0  0
   42.8183   -3.8805   45.0114 C   0  0  0  0  0  0  0  0  0  0  0  0
   42.8797   -2.3957   44.5891 C   0  0  2  0  0  0  0  0  0  0  0  0
   41.6712   -1.5908   45.1124 C   0  0  0  0  0  0  0  0  0  0  0  0
   41.9515   -0.6182   46.2356 N   0  3  1  0  0  0  0  0  0  0  0  0
   40.6924   -0.0198   46.8303 C   0  0  0  0  0  0  0  0  0  0  0  0
   40.8644    0.4140   48.3041 C   0  0  0  0  0  0  0  0  0  0  0  0
   42.2824    0.9604   48.5754 C   0  0  2  0  0  0  0  0  0  0  0  0
   43.3394   -0.1418   48.3018 C   0  0  0  0  0  0  0  0  0  0  0  0
   42.8627   -1.2048   47.2838 C   0  0  0  0  0  0  0  0  0  0  0  0
   42.4547    1.6092   49.9481 C   0  0  0  0  0  0  0  0  0  0  0  0
   42.7445    2.9421   50.1121 C   0  0  0  0  0  0  0  0  0  0  0  0
   42.8790    3.4668   51.3746 C   0  0  0  0  0  0  0  0  0  0  0  0
   42.7399    2.7441   52.5023 N   0  0  0  0  0  0  0  0  0  0  0  0
   42.4541    1.4406   52.3207 C   0  0  0  0  0  0  0  0  0  0  0  0
   42.3099    0.8555   51.0856 C   0  0  0  0  0  0  0  0  0  0  0  0
   42.8352   -2.2966   43.1591 O   0  0  0  0  0  0  0  0  0  0  0  0
   41.9279   -6.7321   46.3023 C   0  0  0  0  0  0  0  0  0  0  0  0
   41.1191   -7.9684   46.7566 C   0  0  0  0  0  0  0  0  0  0  0  0
   40.6380   -8.7318   45.5521 N   0  3  0  0  0  0  0  0  0  0  0  0
   39.7493   -7.9371   44.6249 C   0  0  0  0  0  0  0  0  0  0  0  0
   38.5295   -7.8409   38.9846 S   0  0  0  0  0  0  0  0  0  0  0  0
   40.2971   -8.2157   38.8547 C   0  0  0  0  0  0  0  0  0  0  0  0
   40.5024   -9.2725   37.7523 C   0  0  0  0  0  0  0  0  0  0  0  0
   41.6174   -8.9312   36.7974 N   0  3  2  0  0  0  0  0  0  0  0  0
   42.3877  -10.1378   36.3177 C   0  0  0  0  0  0  0  0  0  0  0  0
   43.4397   -9.7298   35.2652 C   0  0  0  0  0  0  0  0  0  0  0  0
   44.3835   -8.6601   35.8486 C   0  0  2  0  0  0  0  0  0  0  0  0
   43.5733   -7.4346   36.3129 C   0  0  0  0  0  0  0  0  0  0  0  0
   42.5223   -7.8629   37.3571 C   0  0  0  0  0  0  0  0  0  0  0  0
   45.2912   -8.2658   34.8723 F   0  0  0  0  0  0  0  0  0  0  0  0
   36.1417   -5.6864   39.1528 C   0  0  0  0  0  0  0  0  0  0  0  0
   35.0545   -4.8796   39.4776 F   0  0  0  0  0  0  0  0  0  0  0  0
   36.6458   -5.2127   37.9465 F   0  0  0  0  0  0  0  0  0  0  0  0
   35.6373   -6.9614   38.9223 F   0  0  0  0  0  0  0  0  0  0  0  0
   43.7276   -2.0279   44.9712 H   0  0  0  0  0  0  0  0  0  0  0  0
   37.9389   -4.0593   42.9921 H   0  0  0  0  0  0  0  0  0  0  0  0
   36.3538   -4.1479   41.2484 H   0  0  0  0  0  0  0  0  0  0  0  0
   39.9904   -7.1889   41.2823 H   0  0  0  0  0  0  0  0  0  0  0  0
   43.6552   -4.3012   44.6613 H   0  0  0  0  0  0  0  0  0  0  0  0
   42.6702   -3.7949   45.9967 H   0  0  0  0  0  0  0  0  0  0  0  0
   40.9851   -2.2431   45.4346 H   0  0  0  0  0  0  0  0  0  0  0  0
   41.3716   -1.0279   44.3420 H   0  0  0  0  0  0  0  0  0  0  0  0
   42.4158    0.0771   45.8740 H   0  0  0  0  0  0  0  0  0  0  0  0
   39.9607   -0.6995   46.7794 H   0  0  0  0  0  0  0  0  0  0  0  0
   40.4750    0.8014   46.3027 H   0  0  0  0  0  0  0  0  0  0  0  0
   40.6988   -0.3740   48.8970 H   0  0  0  0  0  0  0  0  0  0  0  0
   40.2083    1.1447   48.4928 H   0  0  0  0  0  0  0  0  0  0  0  0
   42.4290    1.7127   47.9331 H   0  0  0  0  0  0  0  0  0  0  0  0
   43.5547   -0.5988   49.1648 H   0  0  0  0  0  0  0  0  0  0  0  0
   44.1410    0.3071   47.9069 H   0  0  0  0  0  0  0  0  0  0  0  0
   43.6610   -1.6035   46.8324 H   0  0  0  0  0  0  0  0  0  0  0  0
   42.3474   -1.8999   47.7851 H   0  0  0  0  0  0  0  0  0  0  0  0
   42.8577    3.5308   49.3117 H   0  0  0  0  0  0  0  0  0  0  0  0
   43.0922    4.4400   51.4611 H   0  0  0  0  0  0  0  0  0  0  0  0
   42.3404    0.8657   53.1310 H   0  0  0  0  0  0  0  0  0  0  0  0
   42.0994   -0.1196   51.0159 H   0  0  0  0  0  0  0  0  0  0  0  0
   43.1670   -1.4006   42.8442 H   0  0  0  0  0  0  0  0  0  0  0  0
   41.9738   -6.0855   47.0638 H   0  0  0  0  0  0  0  0  0  0  0  0
   42.8310   -7.0622   46.0277 H   0  0  0  0  0  0  0  0  0  0  0  0
   40.3340   -7.6722   47.3006 H   0  0  0  0  0  0  0  0  0  0  0  0
   41.7041   -8.5610   47.3103 H   0  0  0  0  0  0  0  0  0  0  0  0
   41.3500   -9.0651   45.0922 H   0  0  0  0  0  0  0  0  0  0  0  0
   40.1930   -9.4721   45.8414 H   0  0  0  0  0  0  0  0  0  0  0  0
   39.6484   -8.4273   43.7590 H   0  0  0  0  0  0  0  0  0  0  0  0
   38.8537   -7.8199   45.0539 H   0  0  0  0  0  0  0  0  0  0  0  0
   40.6325   -8.5686   39.7284 H   0  0  0  0  0  0  0  0  0  0  0  0
   40.8041   -7.3850   38.6251 H   0  0  0  0  0  0  0  0  0  0  0  0
   39.6524   -9.3602   37.2330 H   0  0  0  0  0  0  0  0  0  0  0  0
   40.7548  -10.1273   38.2059 H   0  0  0  0  0  0  0  0  0  0  0  0
   41.2230   -8.5656   36.0609 H   0  0  0  0  0  0  0  0  0  0  0  0
   41.7522  -10.7951   35.9126 H   0  0  0  0  0  0  0  0  0  0  0  0
   42.8582  -10.5499   37.0979 H   0  0  0  0  0  0  0  0  0  0  0  0
   42.9774   -9.3623   34.4581 H   0  0  0  0  0  0  0  0  0  0  0  0
   43.9762  -10.5340   35.0094 H   0  0  0  0  0  0  0  0  0  0  0  0
   44.8709   -9.0467   36.6315 H   0  0  0  0  0  0  0  0  0  0  0  0
   43.1137   -7.0220   35.5264 H   0  0  0  0  0  0  0  0  0  0  0  0
   44.1937   -6.7685   36.7271 H   0  0  0  0  0  0  0  0  0  0  0  0
   42.9876   -8.2169   38.1684 H   0  0  0  0  0  0  0  0  0  0  0  0
   41.9675   -7.0663   37.5975 H   0  0  0  0  0  0  0  0  0  0  0  0
  1  2  2  0  0  0  0
  1  6  1  0  0  0  0
  1 47  1  0  0  0  0
  2  3  1  0  0  0  0
  2 48  1  0  0  0  0
  3  4  2  0  0  0  0
  3 42  1  0  0  0  0
  4  5  1  0  0  0  0
  4 32  1  0  0  0  0
  5  6  2  0  0  0  0
  5 49  1  0  0  0  0
  6  7  1  0  0  0  0
  7  8  1  0  0  0  0
  7 11  2  0  0  0  0
  8  9  2  0  0  0  0
  8 31  1  0  0  0  0
  9 10  1  0  0  0  0
  9 28  1  0  0  0  0
 10 11  1  0  0  0  0
 10 12  1  0  0  0  0
 12 13  1  0  0  0  0
 12 50  1  0  0  0  0
 12 51  1  0  0  0  0
 13 14  1  0  0  0  0
 13 27  1  0  0  0  0
 13 46  1  1  0  0  0
 14 15  1  0  0  0  0
 14 52  1  0  0  0  0
 14 53  1  0  0  0  0
 15 16  1  0  0  0  0
 15 20  1  0  0  0  0
 15 54  1  6  0  0  0
 16 17  1  0  0  0  0
 16 55  1  0  0  0  0
 16 56  1  0  0  0  0
 17 18  1  0  0  0  0
 17 57  1  0  0  0  0
 17 58  1  0  0  0  0
 18 19  1  0  0  0  0
 18 21  1  0  0  0  0
 18 59  1  6  0  0  0
 19 20  1  0  0  0  0
 19 60  1  0  0  0  0
 19 61  1  0  0  0  0
 20 62  1  0  0  0  0
 20 63  1  0  0  0  0
 21 22  2  0  0  0  0
 21 26  1  0  0  0  0
 22 23  1  0  0  0  0
 22 64  1  0  0  0  0
 23 24  2  0  0  0  0
 23 65  1  0  0  0  0
 24 25  1  0  0  0  0
 25 26  2  0  0  0  0
 25 66  1  0  0  0  0
 26 67  1  0  0  0  0
 27 68  1  0  0  0  0
 28 29  1  0  0  0  0
 28 69  1  0  0  0  0
 28 70  1  0  0  0  0
 29 30  1  0  0  0  0
 29 71  1  0  0  0  0
 29 72  1  0  0  0  0
 30 31  1  0  0  0  0
 30 73  1  0  0  0  0
 30 74  1  0  0  0  0
 31 75  1  0  0  0  0
 31 76  1  0  0  0  0
 32 33  1  0  0  0  0
 33 34  1  0  0  0  0
 33 77  1  0  0  0  0
 33 78  1  0  0  0  0
 34 35  1  0  0  0  0
 34 79  1  0  0  0  0
 34 80  1  0  0  0  0
 35 36  1  0  0  0  0
 35 40  1  0  0  0  0
 35 81  1  6  0  0  0
 36 37  1  0  0  0  0
 36 82  1  0  0  0  0
 36 83  1  0  0  0  0
 37 38  1  0  0  0  0
 37 84  1  0  0  0  0
 37 85  1  0  0  0  0
 38 39  1  0  0  0  0
 38 41  1  0  0  0  0
 38 86  1  1  0  0  0
 39 40  1  0  0  0  0
 39 87  1  0  0  0  0
 39 88  1  0  0  0  0
 40 89  1  0  0  0  0
 40 90  1  0  0  0  0
 42 43  1  0  0  0  0
 42 44  1  0  0  0  0
 42 45  1  0  0  0  0
M  CHG  3  15   1  30   1  35   1
M  END
