CatS_144:1_D
 OpenBabel12041818463D

102107  0  0  0  0  0  0  0  0999 V2000
   39.0529  -16.1732   44.2165 C   0  0  0  0  0  0  0  0  0  0  0  0
   38.1118  -15.5358   45.2603 C   0  0  0  0  0  0  0  0  0  0  0  0
   38.2238  -16.4027   46.5323 C   0  0  0  0  0  0  0  0  0  0  0  0
   36.6685  -15.6761   44.7395 C   0  0  0  0  0  0  0  0  0  0  0  0
   38.5291  -14.0550   45.5348 C   0  0  1  0  0  0  0  0  0  0  0  0
   39.9785  -13.8835   46.0554 C   0  0  0  0  0  0  0  0  0  0  0  0
   40.2064  -12.4308   46.5216 C   0  0  0  0  0  0  0  0  0  0  0  0
   39.9494  -11.4497   45.4039 N   0  3  1  0  0  0  0  0  0  0  0  0
   38.6008  -11.6530   44.7576 C   0  0  0  0  0  0  0  0  0  0  0  0
   38.3687  -13.1103   44.3196 C   0  0  0  0  0  0  0  0  0  0  0  0
   40.1114  -10.0171   45.8383 C   0  0  0  0  0  0  0  0  0  0  0  0
   41.4930   -9.3676   45.6084 C   0  0  0  0  0  0  0  0  0  0  0  0
   41.5528   -7.9675   46.2647 C   0  0  0  0  0  0  0  0  0  0  0  0
   41.4935   -6.8157   45.3508 N   0  0  0  0  0  0  0  0  0  0  0  0
   40.6307   -6.5164   44.3458 C   0  0  0  0  0  0  0  0  0  0  0  0
   40.9332   -5.3743   43.7236 C   0  0  0  0  0  0  0  0  0  0  0  0
   42.0872   -4.9247   44.4056 C   0  0  0  0  0  0  0  0  0  0  0  0
   42.3956   -5.8110   45.3260 N   0  0  0  0  0  0  0  0  0  0  0  0
   42.8461   -3.6992   44.2342 C   0  0  0  0  0  0  0  0  0  0  0  0
   42.5136   -2.6354   45.0610 C   0  0  0  0  0  0  0  0  0  0  0  0
   43.2081   -1.4527   44.9958 C   0  0  0  0  0  0  0  0  0  0  0  0
   44.2150   -1.3085   44.0775 C   0  0  0  0  0  0  0  0  0  0  0  0
   44.5669   -2.3541   43.2259 C   0  0  0  0  0  0  0  0  0  0  0  0
   43.8803   -3.5650   43.3212 C   0  0  0  0  0  0  0  0  0  0  0  0
   45.6398   -2.0163   42.3188 C   0  0  0  0  0  0  0  0  0  0  0  0
   46.5345   -1.9419   41.4859 C   0  0  0  0  0  0  0  0  0  0  0  0
   47.5479   -2.0859   40.4688 C   0  0  0  0  0  0  0  0  0  0  0  0
   48.8002   -2.4930   40.9154 C   0  0  0  0  0  0  0  0  0  0  0  0
   49.7936   -2.7902   40.0233 C   0  0  0  0  0  0  0  0  0  0  0  0
   49.5606   -2.7172   38.6665 C   0  0  0  0  0  0  0  0  0  0  0  0
   48.3343   -2.2658   38.2138 C   0  0  0  0  0  0  0  0  0  0  0  0
   47.3334   -1.9401   39.1002 C   0  0  0  0  0  0  0  0  0  0  0  0
   50.6680   -3.1544   37.7134 C   0  0  0  0  0  0  0  0  0  0  0  0
   50.6772   -2.4102   36.3938 N   0  3  0  0  0  0  0  0  0  0  0  0
   51.9553   -2.5117   35.5937 C   0  0  0  0  0  0  0  0  0  0  0  0
   52.8941   -1.3147   35.6574 C   0  0  0  0  0  0  0  0  0  0  0  0
   53.7046   -0.9557   34.6018 C   0  0  0  0  0  0  0  0  0  0  0  0
   54.5055    0.1607   34.6884 C   0  0  0  0  0  0  0  0  0  0  0  0
   54.4984    0.9287   35.8318 C   0  0  0  0  0  0  0  0  0  0  0  0
   53.6948    0.5719   36.8906 C   0  0  0  0  0  0  0  0  0  0  0  0
   52.8971   -0.5451   36.8009 C   0  0  0  0  0  0  0  0  0  0  0  0
   55.4948    2.3508   35.9393 Cl  0  0  0  0  0  0  0  0  0  0  0  0
   45.0693    0.2036   43.9819 Cl  0  0  0  0  0  0  0  0  0  0  0  0
   40.1261   -4.8409   42.5431 C   0  0  0  0  0  0  0  0  0  0  0  0
   38.7685   -5.4300   42.4426 N   0  0  0  0  0  0  0  0  0  0  0  0
   38.8794   -6.9014   42.5542 C   0  0  0  0  0  0  0  0  0  0  0  0
   39.4320   -7.3492   43.9286 C   0  0  0  0  0  0  0  0  0  0  0  0
   37.8135   -4.8469   41.2492 S   0  0  0  0  0  0  0  0  0  0  0  0
   37.8259   -3.4214   41.3247 O   0  0  0  0  0  0  0  0  0  0  0  0
   36.5527   -5.5053   41.3641 O   0  0  0  0  0  0  0  0  0  0  0  0
   38.5387   -5.3412   39.6605 C   0  0  0  0  0  0  0  0  0  0  0  0
   39.7342  -15.4969   43.9365 H   0  0  0  0  0  0  0  0  0  0  0  0
   39.5110  -16.9676   44.6151 H   0  0  0  0  0  0  0  0  0  0  0  0
   38.5231  -16.4681   43.4213 H   0  0  0  0  0  0  0  0  0  0  0  0
   38.5462  -15.8322   47.2877 H   0  0  0  0  0  0  0  0  0  0  0  0
   37.3289  -16.7874   46.7587 H   0  0  0  0  0  0  0  0  0  0  0  0
   38.8689  -17.1502   46.3745 H   0  0  0  0  0  0  0  0  0  0  0  0
   36.2568  -14.7672   44.6726 H   0  0  0  0  0  0  0  0  0  0  0  0
   36.6751  -16.1100   43.8386 H   0  0  0  0  0  0  0  0  0  0  0  0
   36.1368  -16.2421   45.3696 H   0  0  0  0  0  0  0  0  0  0  0  0
   37.8817  -13.7955   46.2513 H   0  0  0  0  0  0  0  0  0  0  0  0
   40.6229  -14.1034   45.3229 H   0  0  0  0  0  0  0  0  0  0  0  0
   40.1235  -14.5006   46.8289 H   0  0  0  0  0  0  0  0  0  0  0  0
   41.1510  -12.3319   46.8345 H   0  0  0  0  0  0  0  0  0  0  0  0
   39.5676  -12.2344   47.2654 H   0  0  0  0  0  0  0  0  0  0  0  0
   40.5692  -11.6113   44.7559 H   0  0  0  0  0  0  0  0  0  0  0  0
   38.5362  -11.0603   43.9548 H   0  0  0  0  0  0  0  0  0  0  0  0
   37.9025  -11.4270   45.4366 H   0  0  0  0  0  0  0  0  0  0  0  0
   37.4467  -13.2038   43.9440 H   0  0  0  0  0  0  0  0  0  0  0  0
   39.0408  -13.3547   43.6207 H   0  0  0  0  0  0  0  0  0  0  0  0
   39.9138   -9.9732   46.8176 H   0  0  0  0  0  0  0  0  0  0  0  0
   39.4822   -9.4978   45.2600 H   0  0  0  0  0  0  0  0  0  0  0  0
   41.6572   -9.2801   44.6258 H   0  0  0  0  0  0  0  0  0  0  0  0
   42.1945   -9.9470   46.0234 H   0  0  0  0  0  0  0  0  0  0  0  0
   42.4079   -7.9072   46.7796 H   0  0  0  0  0  0  0  0  0  0  0  0
   40.7288   -7.9020   46.8276 H   0  0  0  0  0  0  0  0  0  0  0  0
   41.7601   -2.7312   45.7113 H   0  0  0  0  0  0  0  0  0  0  0  0
   42.9804   -0.7010   45.6147 H   0  0  0  0  0  0  0  0  0  0  0  0
   44.1335   -4.3331   42.7330 H   0  0  0  0  0  0  0  0  0  0  0  0
   48.9759   -2.5692   41.8969 H   0  0  0  0  0  0  0  0  0  0  0  0
   50.6958   -3.0625   40.3578 H   0  0  0  0  0  0  0  0  0  0  0  0
   48.1730   -2.1750   37.2310 H   0  0  0  0  0  0  0  0  0  0  0  0
   46.4555   -1.6002   38.7631 H   0  0  0  0  0  0  0  0  0  0  0  0
   50.5558   -4.1302   37.5256 H   0  0  0  0  0  0  0  0  0  0  0  0
   51.5358   -2.9481   38.1655 H   0  0  0  0  0  0  0  0  0  0  0  0
   50.5136   -1.5313   36.5672 H   0  0  0  0  0  0  0  0  0  0  0  0
   49.9681   -2.6682   35.8835 H   0  0  0  0  0  0  0  0  0  0  0  0
   51.7050   -2.6539   34.6360 H   0  0  0  0  0  0  0  0  0  0  0  0
   52.4649   -3.2677   36.0045 H   0  0  0  0  0  0  0  0  0  0  0  0
   53.7109   -1.5091   33.7689 H   0  0  0  0  0  0  0  0  0  0  0  0
   55.0932    0.4145   33.9201 H   0  0  0  0  0  0  0  0  0  0  0  0
   53.6908    1.1241   37.7243 H   0  0  0  0  0  0  0  0  0  0  0  0
   52.3142   -0.8011   37.5721 H   0  0  0  0  0  0  0  0  0  0  0  0
   40.6247   -5.0420   41.6999 H   0  0  0  0  0  0  0  0  0  0  0  0
   40.0098   -3.8580   42.6858 H   0  0  0  0  0  0  0  0  0  0  0  0
   39.4902   -7.2342   41.8358 H   0  0  0  0  0  0  0  0  0  0  0  0
   37.9607   -7.2843   42.4571 H   0  0  0  0  0  0  0  0  0  0  0  0
   38.7131   -7.2541   44.6171 H   0  0  0  0  0  0  0  0  0  0  0  0
   39.7245   -8.3024   43.8517 H   0  0  0  0  0  0  0  0  0  0  0  0
   37.9116   -5.9672   39.1971 H   0  0  0  0  0  0  0  0  0  0  0  0
   38.6891   -4.5327   39.0916 H   0  0  0  0  0  0  0  0  0  0  0  0
   39.4153   -5.7962   39.8176 H   0  0  0  0  0  0  0  0  0  0  0  0
  1  2  1  0  0  0  0
  1 52  1  0  0  0  0
  1 53  1  0  0  0  0
  1 54  1  0  0  0  0
  2  3  1  0  0  0  0
  2  4  1  0  0  0  0
  2  5  1  0  0  0  0
  3 55  1  0  0  0  0
  3 56  1  0  0  0  0
  3 57  1  0  0  0  0
  4 58  1  0  0  0  0
  4 59  1  0  0  0  0
  4 60  1  0  0  0  0
  5  6  1  0  0  0  0
  5 10  1  0  0  0  0
  5 61  1  1  0  0  0
  6  7  1  0  0  0  0
  6 62  1  0  0  0  0
  6 63  1  0  0  0  0
  7  8  1  0  0  0  0
  7 64  1  0  0  0  0
  7 65  1  0  0  0  0
  8  9  1  0  0  0  0
  8 11  1  0  0  0  0
  8 66  1  6  0  0  0
  9 10  1  0  0  0  0
  9 67  1  0  0  0  0
  9 68  1  0  0  0  0
 10 69  1  0  0  0  0
 10 70  1  0  0  0  0
 11 12  1  0  0  0  0
 11 71  1  0  0  0  0
 11 72  1  0  0  0  0
 12 13  1  0  0  0  0
 12 73  1  0  0  0  0
 12 74  1  0  0  0  0
 13 14  1  0  0  0  0
 13 75  1  0  0  0  0
 13 76  1  0  0  0  0
 14 15  1  0  0  0  0
 14 18  1  0  0  0  0
 15 16  2  0  0  0  0
 15 47  1  0  0  0  0
 16 17  1  0  0  0  0
 16 44  1  0  0  0  0
 17 18  2  0  0  0  0
 17 19  1  0  0  0  0
 19 20  2  0  0  0  0
 19 24  1  0  0  0  0
 20 21  1  0  0  0  0
 20 77  1  0  0  0  0
 21 22  2  0  0  0  0
 21 78  1  0  0  0  0
 22 23  1  0  0  0  0
 22 43  1  0  0  0  0
 23 24  2  0  0  0  0
 23 25  1  0  0  0  0
 24 79  1  0  0  0  0
 25 26  3  0  0  0  0
 26 27  1  0  0  0  0
 27 28  2  0  0  0  0
 27 32  1  0  0  0  0
 28 29  1  0  0  0  0
 28 80  1  0  0  0  0
 29 30  2  0  0  0  0
 29 81  1  0  0  0  0
 30 31  1  0  0  0  0
 30 33  1  0  0  0  0
 31 32  2  0  0  0  0
 31 82  1  0  0  0  0
 32 83  1  0  0  0  0
 33 34  1  0  0  0  0
 33 84  1  0  0  0  0
 33 85  1  0  0  0  0
 34 35  1  0  0  0  0
 34 86  1  0  0  0  0
 34 87  1  0  0  0  0
 35 36  1  0  0  0  0
 35 88  1  0  0  0  0
 35 89  1  0  0  0  0
 36 37  2  0  0  0  0
 36 41  1  0  0  0  0
 37 38  1  0  0  0  0
 37 90  1  0  0  0  0
 38 39  2  0  0  0  0
 38 91  1  0  0  0  0
 39 40  1  0  0  0  0
 39 42  1  0  0  0  0
 40 41  2  0  0  0  0
 40 92  1  0  0  0  0
 41 93  1  0  0  0  0
 44 45  1  0  0  0  0
 44 94  1  0  0  0  0
 44 95  1  0  0  0  0
 45 46  1  0  0  0  0
 45 48  1  0  0  0  0
 46 47  1  0  0  0  0
 46 96  1  0  0  0  0
 46 97  1  0  0  0  0
 47 98  1  0  0  0  0
 47 99  1  0  0  0  0
 48 49  2  0  0  0  0
 48 50  2  0  0  0  0
 48 51  1  0  0  0  0
 51100  1  0  0  0  0
 51101  1  0  0  0  0
 51102  1  0  0  0  0
M  CHG  2   8   1  34   1
M  END
