CatS_342:1_D
 OpenBabel12041818463D

 86 92  0  0  1  0  0  0  0  0999 V2000
   41.4178   -8.4869   48.6055 C   0  0  0  0  0  0  0  0  0  0  0  0
   42.0256   -9.0722   46.9999 S   0  0  0  0  0  0  0  0  0  0  0  0
   43.4376   -8.8673   46.9607 O   0  0  0  0  0  0  0  0  0  0  0  0
   41.5497  -10.4064   46.8276 O   0  0  0  0  0  0  0  0  0  0  0  0
   41.3554   -8.1596   45.8238 N   0  0  0  0  0  0  0  0  0  0  0  0
   39.8892   -8.2576   45.6595 C   0  0  0  0  0  0  0  0  0  0  0  0
   39.4011   -7.6952   44.3038 C   0  0  0  0  0  0  0  0  0  0  0  0
   40.0811   -6.3822   43.9656 C   0  0  0  0  0  0  0  0  0  0  0  0
   41.1325   -5.9428   44.6602 C   0  0  0  0  0  0  0  0  0  0  0  0
   41.4371   -4.7072   44.0416 C   0  0  0  0  0  0  0  0  0  0  0  0
   40.6039   -4.5204   43.0422 N   0  0  0  0  0  0  0  0  0  0  0  0
   39.7239   -5.5430   42.9588 N   0  0  0  0  0  0  0  0  0  0  0  0
   38.6661   -5.6441   41.9438 C   0  0  0  0  0  0  0  0  0  0  0  0
   38.7240   -6.9250   41.0767 C   0  0  0  0  0  0  0  0  0  0  0  0
   38.1131   -6.7472   39.6614 C   0  0  0  0  0  0  0  0  0  0  0  0
   36.6730   -7.1941   39.5681 N   0  3  0  0  0  0  0  0  0  0  0  0
   35.7872   -6.4735   40.5544 C   0  0  0  0  0  0  0  0  0  0  0  0
   35.5145   -5.0361   40.0675 C   0  0  0  0  0  0  0  0  0  0  0  0
   34.9546   -5.0464   38.7409 O   0  0  0  0  0  0  0  0  0  0  0  0
   35.8365   -5.6587   37.7799 C   0  0  0  0  0  0  0  0  0  0  0  0
   36.1250   -7.1249   38.1641 C   0  0  0  0  0  0  0  0  0  0  0  0
   42.4317   -3.7188   44.4100 C   0  0  0  0  0  0  0  0  0  0  0  0
   42.4896   -3.1460   45.6717 C   0  0  0  0  0  0  0  0  0  0  0  0
   43.4906   -2.2507   45.9854 C   0  0  0  0  0  0  0  0  0  0  0  0
   44.4606   -1.9217   45.0667 C   0  0  0  0  0  0  0  0  0  0  0  0
   44.4099   -2.4957   43.7980 C   0  0  0  0  0  0  0  0  0  0  0  0
   43.3827   -3.3716   43.4799 C   0  0  0  0  0  0  0  0  0  0  0  0
   45.3618   -2.2809   42.7397 C   0  0  0  0  0  0  0  0  0  0  0  0
   46.1385   -2.2474   41.8003 C   0  0  0  0  0  0  0  0  0  0  0  0
   47.0015   -2.3652   40.6547 C   0  0  0  0  0  0  0  0  0  0  0  0
   46.5647   -2.2725   39.3371 C   0  0  0  0  0  0  0  0  0  0  0  0
   47.4782   -2.3569   38.3135 C   0  0  0  0  0  0  0  0  0  0  0  0
   48.8223   -2.5395   38.5833 C   0  0  0  0  0  0  0  0  0  0  0  0
   49.2477   -2.6556   39.8913 C   0  0  0  0  0  0  0  0  0  0  0  0
   48.3509   -2.5652   40.9203 C   0  0  0  0  0  0  0  0  0  0  0  0
   50.7234   -2.8670   40.1638 C   0  0  0  0  0  0  0  0  0  0  0  0
   51.5326   -1.8863   39.2991 C   0  0  0  0  0  0  0  0  0  0  0  0
   51.2262   -2.0377   37.8209 N   0  3  2  0  0  0  0  0  0  0  0  0
   49.8711   -2.6399   37.4788 C   0  0  0  0  0  0  0  0  0  0  0  0
   52.3456   -2.7306   37.0851 C   0  0  0  0  0  0  0  0  0  0  0  0
   52.3178   -2.6428   35.5486 C   0  0  0  0  0  0  0  0  0  0  0  0
   53.3127   -1.7867   36.3485 C   0  0  0  0  0  0  0  0  0  0  0  0
   45.7311   -0.8137   45.5019 Cl  0  0  0  0  0  0  0  0  0  0  0  0
   41.7413   -6.7259   45.8199 C   0  0  0  0  0  0  0  0  0  0  0  0
   40.7921   -7.7210   48.4572 H   0  0  0  0  0  0  0  0  0  0  0  0
   40.9378   -9.2277   49.0754 H   0  0  0  0  0  0  0  0  0  0  0  0
   42.1884   -8.1892   49.1690 H   0  0  0  0  0  0  0  0  0  0  0  0
   39.4483   -7.7471   46.3977 H   0  0  0  0  0  0  0  0  0  0  0  0
   39.6468   -9.2274   45.6872 H   0  0  0  0  0  0  0  0  0  0  0  0
   38.4128   -7.5496   44.3484 H   0  0  0  0  0  0  0  0  0  0  0  0
   39.6306   -8.3573   43.5903 H   0  0  0  0  0  0  0  0  0  0  0  0
   38.7363   -4.8514   41.3383 H   0  0  0  0  0  0  0  0  0  0  0  0
   37.7993   -5.6798   42.4413 H   0  0  0  0  0  0  0  0  0  0  0  0
   38.2252   -7.6512   41.5498 H   0  0  0  0  0  0  0  0  0  0  0  0
   39.6904   -7.1493   40.9507 H   0  0  0  0  0  0  0  0  0  0  0  0
   38.6554   -7.2797   39.0115 H   0  0  0  0  0  0  0  0  0  0  0  0
   38.1310   -5.7692   39.4535 H   0  0  0  0  0  0  0  0  0  0  0  0
   36.6506   -8.0710   39.8161 H   0  0  0  0  0  0  0  0  0  0  0  0
   36.2382   -6.4436   41.4463 H   0  0  0  0  0  0  0  0  0  0  0  0
   34.9183   -6.9623   40.6325 H   0  0  0  0  0  0  0  0  0  0  0  0
   36.3721   -4.5218   40.0608 H   0  0  0  0  0  0  0  0  0  0  0  0
   34.8597   -4.6050   40.6884 H   0  0  0  0  0  0  0  0  0  0  0  0
   36.6963   -5.1491   37.7494 H   0  0  0  0  0  0  0  0  0  0  0  0
   35.3957   -5.6428   36.8824 H   0  0  0  0  0  0  0  0  0  0  0  0
   35.2794   -7.6561   38.1108 H   0  0  0  0  0  0  0  0  0  0  0  0
   36.8005   -7.5014   37.5301 H   0  0  0  0  0  0  0  0  0  0  0  0
   41.8018   -3.3835   46.3576 H   0  0  0  0  0  0  0  0  0  0  0  0
   43.5118   -1.8344   46.8944 H   0  0  0  0  0  0  0  0  0  0  0  0
   43.3329   -3.7570   42.5585 H   0  0  0  0  0  0  0  0  0  0  0  0
   45.5934   -2.1454   39.1361 H   0  0  0  0  0  0  0  0  0  0  0  0
   47.1683   -2.2856   37.3654 H   0  0  0  0  0  0  0  0  0  0  0  0
   48.6669   -2.6436   41.8658 H   0  0  0  0  0  0  0  0  0  0  0  0
   50.9772   -3.8073   39.9370 H   0  0  0  0  0  0  0  0  0  0  0  0
   50.9169   -2.7042   41.1313 H   0  0  0  0  0  0  0  0  0  0  0  0
   52.5075   -2.0531   39.4471 H   0  0  0  0  0  0  0  0  0  0  0  0
   51.2794   -0.9576   39.5701 H   0  0  0  0  0  0  0  0  0  0  0  0
   51.2024   -1.1842   37.5044 H   0  0  0  0  0  0  0  0  0  0  0  0
   49.5166   -2.1720   36.6693 H   0  0  0  0  0  0  0  0  0  0  0  0
   50.0299   -3.6164   37.3330 H   0  0  0  0  0  0  0  0  0  0  0  0
   52.4331   -3.4803   37.7411 H   0  0  0  0  0  0  0  0  0  0  0  0
   51.5440   -2.2126   35.0835 H   0  0  0  0  0  0  0  0  0  0  0  0
   52.3948   -3.3025   34.8011 H   0  0  0  0  0  0  0  0  0  0  0  0
   54.2909   -1.9924   36.3192 H   0  0  0  0  0  0  0  0  0  0  0  0
   53.5238   -0.8105   36.3993 H   0  0  0  0  0  0  0  0  0  0  0  0
   42.7376   -6.6636   45.7604 H   0  0  0  0  0  0  0  0  0  0  0  0
   41.3920   -6.3220   46.6653 H   0  0  0  0  0  0  0  0  0  0  0  0
  1  2  1  0  0  0  0
  1 45  1  0  0  0  0
  1 46  1  0  0  0  0
  1 47  1  0  0  0  0
  2  3  2  0  0  0  0
  2  4  2  0  0  0  0
  2  5  1  0  0  0  0
  5  6  1  0  0  0  0
  5 44  1  0  0  0  0
  6  7  1  0  0  0  0
  6 48  1  0  0  0  0
  6 49  1  0  0  0  0
  7  8  1  0  0  0  0
  7 50  1  0  0  0  0
  7 51  1  0  0  0  0
  8  9  2  0  0  0  0
  8 12  1  0  0  0  0
  9 10  1  0  0  0  0
  9 44  1  0  0  0  0
 10 11  2  0  0  0  0
 10 22  1  0  0  0  0
 11 12  1  0  0  0  0
 12 13  1  0  0  0  0
 13 14  1  0  0  0  0
 13 52  1  0  0  0  0
 13 53  1  0  0  0  0
 14 15  1  0  0  0  0
 14 54  1  0  0  0  0
 14 55  1  0  0  0  0
 15 16  1  0  0  0  0
 15 56  1  0  0  0  0
 15 57  1  0  0  0  0
 16 17  1  0  0  0  0
 16 21  1  0  0  0  0
 16 58  1  0  0  0  0
 17 18  1  0  0  0  0
 17 59  1  0  0  0  0
 17 60  1  0  0  0  0
 18 19  1  0  0  0  0
 18 61  1  0  0  0  0
 18 62  1  0  0  0  0
 19 20  1  0  0  0  0
 20 21  1  0  0  0  0
 20 63  1  0  0  0  0
 20 64  1  0  0  0  0
 21 65  1  0  0  0  0
 21 66  1  0  0  0  0
 22 23  2  0  0  0  0
 22 27  1  0  0  0  0
 23 24  1  0  0  0  0
 23 67  1  0  0  0  0
 24 25  2  0  0  0  0
 24 68  1  0  0  0  0
 25 26  1  0  0  0  0
 25 43  1  0  0  0  0
 26 27  2  0  0  0  0
 26 28  1  0  0  0  0
 27 69  1  0  0  0  0
 28 29  3  0  0  0  0
 29 30  1  0  0  0  0
 30 31  2  0  0  0  0
 30 35  1  0  0  0  0
 31 32  1  0  0  0  0
 31 70  1  0  0  0  0
 32 33  2  0  0  0  0
 32 71  1  0  0  0  0
 33 34  1  0  0  0  0
 33 39  1  0  0  0  0
 34 35  2  0  0  0  0
 34 36  1  0  0  0  0
 35 72  1  0  0  0  0
 36 37  1  0  0  0  0
 36 73  1  0  0  0  0
 36 74  1  0  0  0  0
 37 38  1  0  0  0  0
 37 75  1  0  0  0  0
 37 76  1  0  0  0  0
 38 39  1  0  0  0  0
 38 40  1  0  0  0  0
 38 77  1  6  0  0  0
 39 78  1  0  0  0  0
 39 79  1  0  0  0  0
 40 41  1  0  0  0  0
 40 42  1  0  0  0  0
 40 80  1  0  0  0  0
 41 42  1  0  0  0  0
 41 81  1  0  0  0  0
 41 82  1  0  0  0  0
 42 83  1  0  0  0  0
 42 84  1  0  0  0  0
 44 85  1  0  0  0  0
 44 86  1  0  0  0  0
M  CHG  2  16   1  38   1
M  END
