CatS_422:1_D
 OpenBabel12041818463D

 89 94  0  0  1  0  0  0  0  0999 V2000
   35.7058   -5.9855   37.4336 C   0  0  0  0  0  0  0  0  0  0  0  0
   35.8807   -5.5893   38.9154 C   0  0  1  0  0  0  0  0  0  0  0  0
   35.3133   -6.7230   39.7962 C   0  0  0  0  0  0  0  0  0  0  0  0
   36.1454   -7.8977   39.7198 O   0  0  0  0  0  0  0  0  0  0  0  0
   37.4790   -7.6587   40.2083 C   0  0  0  0  0  0  0  0  0  0  0  0
   38.1743   -6.5589   39.3826 C   0  0  0  0  0  0  0  0  0  0  0  0
   37.3134   -5.3188   39.3382 N   0  3  2  0  0  0  0  0  0  0  0  0
   37.4881   -4.4799   40.5831 C   0  0  0  0  0  0  0  0  0  0  0  0
   38.8502   -4.6526   41.2973 C   0  0  0  0  0  0  0  0  0  0  0  0
   38.7541   -5.4923   42.5877 C   0  0  0  0  0  0  0  0  0  0  0  0
   39.9225   -5.2781   43.4541 N   0  0  0  0  0  0  0  0  0  0  0  0
   40.5427   -6.1153   44.3254 C   0  0  0  0  0  0  0  0  0  0  0  0
   41.6255   -5.5677   44.8852 C   0  0  0  0  0  0  0  0  0  0  0  0
   41.6790   -4.2755   44.3097 C   0  0  0  0  0  0  0  0  0  0  0  0
   40.6650   -4.1490   43.4793 N   0  0  0  0  0  0  0  0  0  0  0  0
   42.6517   -3.2151   44.5234 C   0  0  0  0  0  0  0  0  0  0  0  0
   42.3183   -2.1492   45.3474 C   0  0  0  0  0  0  0  0  0  0  0  0
   43.2083   -1.1228   45.5749 C   0  0  0  0  0  0  0  0  0  0  0  0
   44.4497   -1.1424   44.9872 C   0  0  0  0  0  0  0  0  0  0  0  0
   44.8068   -2.2042   44.1623 C   0  0  0  0  0  0  0  0  0  0  0  0
   43.9015   -3.2348   43.9358 C   0  0  0  0  0  0  0  0  0  0  0  0
   46.1117   -2.2365   43.5522 C   0  0  0  0  0  0  0  0  0  0  0  0
   47.2163   -2.2508   43.0327 C   0  0  0  0  0  0  0  0  0  0  0  0
   48.5193   -2.2439   42.4190 C   0  0  0  0  0  0  0  0  0  0  0  0
   49.4239   -1.2394   42.7475 C   0  0  0  0  0  0  0  0  0  0  0  0
   50.6485   -1.1988   42.1347 C   0  0  0  0  0  0  0  0  0  0  0  0
   50.9929   -2.1488   41.1971 C   0  0  0  0  0  0  0  0  0  0  0  0
   50.1150   -3.1818   40.8728 C   0  0  0  0  0  0  0  0  0  0  0  0
   48.8756   -3.2119   41.4889 C   0  0  0  0  0  0  0  0  0  0  0  0
   50.4470   -4.2204   39.8599 C   0  0  0  0  0  0  0  0  0  0  0  0
   50.7955   -5.2995   40.3346 O   0  0  0  0  0  0  0  0  0  0  0  0
   50.3582   -3.9993   38.5235 N   0  0  0  0  0  0  0  0  0  0  0  0
   50.3207   -5.1470   37.5940 C   0  0  0  0  0  0  0  0  0  0  0  0
   51.1784   -4.9337   36.3332 C   0  0  0  0  0  0  0  0  0  0  0  0
   50.8426   -3.5962   35.7390 N   0  3  0  0  0  0  0  0  0  0  0  0
   51.0796   -2.4437   36.6720 C   0  0  0  0  0  0  0  0  0  0  0  0
   50.2432   -2.6401   37.9505 C   0  0  0  0  0  0  0  0  0  0  0  0
   52.5389   -2.0136   40.4092 Cl  0  0  0  0  0  0  0  0  0  0  0  0
   45.5774    0.1507   45.2668 Cl  0  0  0  0  0  0  0  0  0  0  0  0
   42.5131   -6.2982   45.8868 C   0  0  0  0  0  0  0  0  0  0  0  0
   42.0836   -7.6933   46.1289 N   0  0  0  0  0  0  0  0  0  0  0  0
   41.2636   -8.4036   45.1260 C   0  0  0  0  0  0  0  0  0  0  0  0
   40.0843   -7.5273   44.6549 C   0  0  0  0  0  0  0  0  0  0  0  0
   42.4665   -8.3043   47.2652 C   0  0  0  0  0  0  0  0  0  0  0  0
   43.0891   -7.7664   48.1706 O   0  0  0  0  0  0  0  0  0  0  0  0
   42.1484   -9.7276   47.5279 C   0  0  0  0  0  0  0  0  0  0  0  0
   42.9501  -10.5812   47.1770 O   0  0  0  0  0  0  0  0  0  0  0  0
   40.9711   -9.9798   48.1145 N   0  0  0  0  0  0  0  0  0  0  0  0
   35.3892   -4.7264   39.0331 H   0  0  0  0  0  0  0  0  0  0  0  0
   34.7972   -5.7028   37.1260 H   0  0  0  0  0  0  0  0  0  0  0  0
   36.4047   -5.5346   36.8785 H   0  0  0  0  0  0  0  0  0  0  0  0
   35.8020   -6.9762   37.3364 H   0  0  0  0  0  0  0  0  0  0  0  0
   34.3907   -6.9511   39.4849 H   0  0  0  0  0  0  0  0  0  0  0  0
   35.2906   -6.4096   40.7455 H   0  0  0  0  0  0  0  0  0  0  0  0
   38.0093   -8.5042   40.1455 H   0  0  0  0  0  0  0  0  0  0  0  0
   37.4227   -7.3566   41.1599 H   0  0  0  0  0  0  0  0  0  0  0  0
   38.3291   -6.8903   38.4519 H   0  0  0  0  0  0  0  0  0  0  0  0
   39.0491   -6.3327   39.8110 H   0  0  0  0  0  0  0  0  0  0  0  0
   37.6654   -4.8137   38.6647 H   0  0  0  0  0  0  0  0  0  0  0  0
   36.7632   -4.7229   41.2277 H   0  0  0  0  0  0  0  0  0  0  0  0
   37.4465   -3.5257   40.2869 H   0  0  0  0  0  0  0  0  0  0  0  0
   39.2066   -3.7475   41.5293 H   0  0  0  0  0  0  0  0  0  0  0  0
   39.4562   -5.1411   40.6695 H   0  0  0  0  0  0  0  0  0  0  0  0
   38.6993   -6.4607   42.3443 H   0  0  0  0  0  0  0  0  0  0  0  0
   37.9361   -5.2085   43.0881 H   0  0  0  0  0  0  0  0  0  0  0  0
   41.4183   -2.1261   45.7826 H   0  0  0  0  0  0  0  0  0  0  0  0
   42.9500   -0.3614   46.1693 H   0  0  0  0  0  0  0  0  0  0  0  0
   44.1577   -3.9975   43.3419 H   0  0  0  0  0  0  0  0  0  0  0  0
   49.1809   -0.5491   43.4289 H   0  0  0  0  0  0  0  0  0  0  0  0
   51.2972   -0.4747   42.3691 H   0  0  0  0  0  0  0  0  0  0  0  0
   48.2287   -3.9398   41.2613 H   0  0  0  0  0  0  0  0  0  0  0  0
   49.3731   -5.3011   37.3146 H   0  0  0  0  0  0  0  0  0  0  0  0
   50.6992   -5.9352   38.0795 H   0  0  0  0  0  0  0  0  0  0  0  0
   50.9877   -5.6565   35.6690 H   0  0  0  0  0  0  0  0  0  0  0  0
   52.1484   -4.9629   36.5738 H   0  0  0  0  0  0  0  0  0  0  0  0
   49.9742   -3.5930   35.4660 H   0  0  0  0  0  0  0  0  0  0  0  0
   51.3209   -3.4736   34.9747 H   0  0  0  0  0  0  0  0  0  0  0  0
   50.8138   -1.5899   36.2243 H   0  0  0  0  0  0  0  0  0  0  0  0
   52.0495   -2.4023   36.9119 H   0  0  0  0  0  0  0  0  0  0  0  0
   50.5472   -1.9786   38.6361 H   0  0  0  0  0  0  0  0  0  0  0  0
   49.2848   -2.5056   37.6988 H   0  0  0  0  0  0  0  0  0  0  0  0
   42.4935   -5.8009   46.7542 H   0  0  0  0  0  0  0  0  0  0  0  0
   43.4347   -6.3328   45.5004 H   0  0  0  0  0  0  0  0  0  0  0  0
   40.9072   -9.2460   45.5302 H   0  0  0  0  0  0  0  0  0  0  0  0
   41.8388   -8.6133   44.3354 H   0  0  0  0  0  0  0  0  0  0  0  0
   39.6759   -7.9373   43.8393 H   0  0  0  0  0  0  0  0  0  0  0  0
   39.4143   -7.4768   45.3955 H   0  0  0  0  0  0  0  0  0  0  0  0
   40.4435   -9.3147   48.3460 H   0  0  0  0  0  0  0  0  0  0  0  0
   40.7253  -10.8107   48.2686 H   0  0  0  0  0  0  0  0  0  0  0  0
  1  2  1  0  0  0  0
  1 50  1  0  0  0  0
  1 51  1  0  0  0  0
  1 52  1  0  0  0  0
  2  3  1  0  0  0  0
  2  7  1  0  0  0  0
  2 49  1  1  0  0  0
  3  4  1  0  0  0  0
  3 53  1  0  0  0  0
  3 54  1  0  0  0  0
  4  5  1  0  0  0  0
  5  6  1  0  0  0  0
  5 55  1  0  0  0  0
  5 56  1  0  0  0  0
  6  7  1  0  0  0  0
  6 57  1  0  0  0  0
  6 58  1  0  0  0  0
  7  8  1  0  0  0  0
  7 59  1  6  0  0  0
  8  9  1  0  0  0  0
  8 60  1  0  0  0  0
  8 61  1  0  0  0  0
  9 10  1  0  0  0  0
  9 62  1  0  0  0  0
  9 63  1  0  0  0  0
 10 11  1  0  0  0  0
 10 64  1  0  0  0  0
 10 65  1  0  0  0  0
 11 12  1  0  0  0  0
 11 15  1  0  0  0  0
 12 13  2  0  0  0  0
 12 43  1  0  0  0  0
 13 14  1  0  0  0  0
 13 40  1  0  0  0  0
 14 15  2  0  0  0  0
 14 16  1  0  0  0  0
 16 17  2  0  0  0  0
 16 21  1  0  0  0  0
 17 18  1  0  0  0  0
 17 66  1  0  0  0  0
 18 19  2  0  0  0  0
 18 67  1  0  0  0  0
 19 20  1  0  0  0  0
 19 39  1  0  0  0  0
 20 21  2  0  0  0  0
 20 22  1  0  0  0  0
 21 68  1  0  0  0  0
 22 23  3  0  0  0  0
 23 24  1  0  0  0  0
 24 25  2  0  0  0  0
 24 29  1  0  0  0  0
 25 26  1  0  0  0  0
 25 69  1  0  0  0  0
 26 27  2  0  0  0  0
 26 70  1  0  0  0  0
 27 28  1  0  0  0  0
 27 38  1  0  0  0  0
 28 29  2  0  0  0  0
 28 30  1  0  0  0  0
 29 71  1  0  0  0  0
 30 31  2  0  0  0  0
 30 32  1  0  0  0  0
 32 33  1  0  0  0  0
 32 37  1  0  0  0  0
 33 34  1  0  0  0  0
 33 72  1  0  0  0  0
 33 73  1  0  0  0  0
 34 35  1  0  0  0  0
 34 74  1  0  0  0  0
 34 75  1  0  0  0  0
 35 36  1  0  0  0  0
 35 76  1  0  0  0  0
 35 77  1  0  0  0  0
 36 37  1  0  0  0  0
 36 78  1  0  0  0  0
 36 79  1  0  0  0  0
 37 80  1  0  0  0  0
 37 81  1  0  0  0  0
 40 41  1  0  0  0  0
 40 82  1  0  0  0  0
 40 83  1  0  0  0  0
 41 42  1  0  0  0  0
 41 44  1  0  0  0  0
 42 43  1  0  0  0  0
 42 84  1  0  0  0  0
 42 85  1  0  0  0  0
 43 86  1  0  0  0  0
 43 87  1  0  0  0  0
 44 45  2  0  0  0  0
 44 46  1  0  0  0  0
 46 47  2  0  0  0  0
 46 48  1  0  0  0  0
 48 88  1  0  0  0  0
 48 89  1  0  0  0  0
M  CHG  2   7   1  35   1
M  END
