CatS_34:1_D
 OpenBabel12041818463D

 87 91  0  0  0  0  0  0  0  0999 V2000
   46.3778  -14.2663   32.6229 C   0  0  0  0  0  0  0  0  0  0  0  0
   45.7769  -13.7864   33.9539 C   0  0  0  0  0  0  0  0  0  0  0  0
   46.0132  -14.8797   35.0123 C   0  0  0  0  0  0  0  0  0  0  0  0
   44.2703  -13.5142   33.7721 C   0  0  0  0  0  0  0  0  0  0  0  0
   43.7561  -12.5169   34.7781 N   0  3  0  0  0  0  0  0  0  0  0  0
   42.5397  -12.9669   35.5492 C   0  0  0  0  0  0  0  0  0  0  0  0
   41.8307  -11.8182   36.2580 C   0  0  0  0  0  0  0  0  0  0  0  0
   40.4575  -11.6609   36.2096 C   0  0  0  0  0  0  0  0  0  0  0  0
   39.8469  -10.6202   36.8633 C   0  0  0  0  0  0  0  0  0  0  0  0
   40.6176   -9.7103   37.5776 C   0  0  0  0  0  0  0  0  0  0  0  0
   41.9985   -9.8655   37.6199 C   0  0  0  0  0  0  0  0  0  0  0  0
   42.5936  -10.9120   36.9657 C   0  0  0  0  0  0  0  0  0  0  0  0
   40.0373   -8.5996   38.2861 C   0  0  0  0  0  0  0  0  0  0  0  0
   39.5728   -7.6957   38.9615 C   0  0  0  0  0  0  0  0  0  0  0  0
   39.0723   -6.6905   39.8635 C   0  0  0  0  0  0  0  0  0  0  0  0
   39.8289   -6.4835   41.0086 C   0  0  0  0  0  0  0  0  0  0  0  0
   39.4419   -5.5769   41.9707 C   0  0  0  0  0  0  0  0  0  0  0  0
   38.2706   -4.8609   41.7645 C   0  0  0  0  0  0  0  0  0  0  0  0
   37.5187   -5.0462   40.6222 C   0  0  0  0  0  0  0  0  0  0  0  0
   37.9057   -5.9552   39.6640 C   0  0  0  0  0  0  0  0  0  0  0  0
   36.9454   -6.1836   38.2301 Cl  0  0  0  0  0  0  0  0  0  0  0  0
   40.2505   -5.3919   43.1664 C   0  0  0  0  0  0  0  0  0  0  0  0
   40.4460   -6.2903   44.2427 C   0  0  0  0  0  0  0  0  0  0  0  0
   41.3074   -5.6512   45.0351 C   0  0  0  0  0  0  0  0  0  0  0  0
   41.6174   -4.4124   44.5796 N   0  0  0  0  0  0  0  0  0  0  0  0
   40.9509   -4.3008   43.4058 N   0  0  0  0  0  0  0  0  0  0  0  0
   42.3439   -3.3253   45.2475 C   0  0  0  0  0  0  0  0  0  0  0  0
   41.7497   -1.9140   45.1152 C   0  0  0  0  0  0  0  0  0  0  0  0
   42.7306   -0.8458   45.6511 C   0  0  0  0  0  0  0  0  0  0  0  0
   42.0544    0.2514   46.4409 N   0  3  0  0  0  0  0  0  0  0  0  0
   41.0871   -0.2630   47.4766 C   0  0  0  0  0  0  0  0  0  0  0  0
   40.3842    0.9346   48.1491 C   0  0  0  0  0  0  0  0  0  0  0  0
   41.3476    1.8584   48.6934 O   0  0  0  0  0  0  0  0  0  0  0  0
   42.2338    2.3868   47.6886 C   0  0  0  0  0  0  0  0  0  0  0  0
   43.0269    1.2414   47.0317 C   0  0  0  0  0  0  0  0  0  0  0  0
   41.8494   -6.2812   46.3084 C   0  0  0  0  0  0  0  0  0  0  0  0
   41.5701   -7.8021   46.3406 C   0  0  0  0  0  0  0  0  0  0  0  0
   40.1642   -8.0837   45.9869 N   0  0  0  0  0  0  0  0  0  0  0  0
   39.9190   -7.6796   44.5827 C   0  0  0  0  0  0  0  0  0  0  0  0
   39.5048   -9.4790   46.4967 S   0  0  0  0  0  0  0  0  0  0  0  0
   38.1053   -9.3964   46.2400 O   0  0  0  0  0  0  0  0  0  0  0  0
   39.8941   -9.6666   47.8550 O   0  0  0  0  0  0  0  0  0  0  0  0
   40.1968  -10.8354   45.5098 C   0  0  0  0  0  0  0  0  0  0  0  0
   45.8008  -13.9468   31.8713 H   0  0  0  0  0  0  0  0  0  0  0  0
   47.3020  -13.8992   32.5176 H   0  0  0  0  0  0  0  0  0  0  0  0
   46.4214  -15.2653   32.6140 H   0  0  0  0  0  0  0  0  0  0  0  0
   46.2119  -12.9367   34.2519 H   0  0  0  0  0  0  0  0  0  0  0  0
   45.1296  -15.1882   35.3645 H   0  0  0  0  0  0  0  0  0  0  0  0
   46.4988  -15.6503   34.5993 H   0  0  0  0  0  0  0  0  0  0  0  0
   46.5648  -14.5106   35.7603 H   0  0  0  0  0  0  0  0  0  0  0  0
   43.7696  -14.3731   33.8790 H   0  0  0  0  0  0  0  0  0  0  0  0
   44.1319  -13.1316   32.8586 H   0  0  0  0  0  0  0  0  0  0  0  0
   43.5781  -11.7345   34.3455 H   0  0  0  0  0  0  0  0  0  0  0  0
   44.4131  -12.2838   35.3622 H   0  0  0  0  0  0  0  0  0  0  0  0
   42.8236  -13.6401   36.2320 H   0  0  0  0  0  0  0  0  0  0  0  0
   41.8947  -13.3574   34.8924 H   0  0  0  0  0  0  0  0  0  0  0  0
   39.9032  -12.3130   35.6923 H   0  0  0  0  0  0  0  0  0  0  0  0
   38.8529  -10.5169   36.8260 H   0  0  0  0  0  0  0  0  0  0  0  0
   42.5587   -9.2120   38.1289 H   0  0  0  0  0  0  0  0  0  0  0  0
   43.5872  -11.0197   37.0014 H   0  0  0  0  0  0  0  0  0  0  0  0
   40.6732   -7.0036   41.1378 H   0  0  0  0  0  0  0  0  0  0  0  0
   37.9676   -4.2019   42.4530 H   0  0  0  0  0  0  0  0  0  0  0  0
   36.6828   -4.5137   40.4892 H   0  0  0  0  0  0  0  0  0  0  0  0
   43.2705   -3.3029   44.8720 H   0  0  0  0  0  0  0  0  0  0  0  0
   42.2959   -3.5385   46.2234 H   0  0  0  0  0  0  0  0  0  0  0  0
   40.8962   -1.8672   45.6342 H   0  0  0  0  0  0  0  0  0  0  0  0
   41.5793   -1.7303   44.1471 H   0  0  0  0  0  0  0  0  0  0  0  0
   43.2065   -0.4329   44.8744 H   0  0  0  0  0  0  0  0  0  0  0  0
   43.3595   -1.3104   46.2744 H   0  0  0  0  0  0  0  0  0  0  0  0
   41.5424    0.7140   45.8465 H   0  0  0  0  0  0  0  0  0  0  0  0
   41.5817   -0.7939   48.1646 H   0  0  0  0  0  0  0  0  0  0  0  0
   40.4058   -0.8499   47.0391 H   0  0  0  0  0  0  0  0  0  0  0  0
   39.7961    0.5996   48.8853 H   0  0  0  0  0  0  0  0  0  0  0  0
   39.8395    1.4128   47.4602 H   0  0  0  0  0  0  0  0  0  0  0  0
   42.8690    3.0330   48.1118 H   0  0  0  0  0  0  0  0  0  0  0  0
   41.6945    2.8552   46.9888 H   0  0  0  0  0  0  0  0  0  0  0  0
   43.6157    1.6073   46.3109 H   0  0  0  0  0  0  0  0  0  0  0  0
   43.5973    0.7887   47.7171 H   0  0  0  0  0  0  0  0  0  0  0  0
   41.4141   -5.8499   47.0987 H   0  0  0  0  0  0  0  0  0  0  0  0
   42.8392   -6.1409   46.3352 H   0  0  0  0  0  0  0  0  0  0  0  0
   41.7564   -8.1520   47.2586 H   0  0  0  0  0  0  0  0  0  0  0  0
   42.1638   -8.2515   45.6731 H   0  0  0  0  0  0  0  0  0  0  0  0
   40.3614   -8.3428   43.9791 H   0  0  0  0  0  0  0  0  0  0  0  0
   38.9273   -7.6541   44.4569 H   0  0  0  0  0  0  0  0  0  0  0  0
   40.7131  -11.4451   46.1112 H   0  0  0  0  0  0  0  0  0  0  0  0
   39.4572  -11.3440   45.0691 H   0  0  0  0  0  0  0  0  0  0  0  0
   40.8016  -10.4644   44.8051 H   0  0  0  0  0  0  0  0  0  0  0  0
  1  2  1  0  0  0  0
  1 44  1  0  0  0  0
  1 45  1  0  0  0  0
  1 46  1  0  0  0  0
  2  3  1  0  0  0  0
  2  4  1  0  0  0  0
  2 47  1  0  0  0  0
  3 48  1  0  0  0  0
  3 49  1  0  0  0  0
  3 50  1  0  0  0  0
  4  5  1  0  0  0  0
  4 51  1  0  0  0  0
  4 52  1  0  0  0  0
  5  6  1  0  0  0  0
  5 53  1  0  0  0  0
  5 54  1  0  0  0  0
  6  7  1  0  0  0  0
  6 55  1  0  0  0  0
  6 56  1  0  0  0  0
  7  8  2  0  0  0  0
  7 12  1  0  0  0  0
  8  9  1  0  0  0  0
  8 57  1  0  0  0  0
  9 10  2  0  0  0  0
  9 58  1  0  0  0  0
 10 11  1  0  0  0  0
 10 13  1  0  0  0  0
 11 12  2  0  0  0  0
 11 59  1  0  0  0  0
 12 60  1  0  0  0  0
 13 14  3  0  0  0  0
 14 15  1  0  0  0  0
 15 16  2  0  0  0  0
 15 20  1  0  0  0  0
 16 17  1  0  0  0  0
 16 61  1  0  0  0  0
 17 18  2  0  0  0  0
 17 22  1  0  0  0  0
 18 19  1  0  0  0  0
 18 62  1  0  0  0  0
 19 20  2  0  0  0  0
 19 63  1  0  0  0  0
 20 21  1  0  0  0  0
 22 23  1  0  0  0  0
 22 26  2  0  0  0  0
 23 24  2  0  0  0  0
 23 39  1  0  0  0  0
 24 25  1  0  0  0  0
 24 36  1  0  0  0  0
 25 26  1  0  0  0  0
 25 27  1  0  0  0  0
 27 28  1  0  0  0  0
 27 64  1  0  0  0  0
 27 65  1  0  0  0  0
 28 29  1  0  0  0  0
 28 66  1  0  0  0  0
 28 67  1  0  0  0  0
 29 30  1  0  0  0  0
 29 68  1  0  0  0  0
 29 69  1  0  0  0  0
 30 31  1  0  0  0  0
 30 35  1  0  0  0  0
 30 70  1  0  0  0  0
 31 32  1  0  0  0  0
 31 71  1  0  0  0  0
 31 72  1  0  0  0  0
 32 33  1  0  0  0  0
 32 73  1  0  0  0  0
 32 74  1  0  0  0  0
 33 34  1  0  0  0  0
 34 35  1  0  0  0  0
 34 75  1  0  0  0  0
 34 76  1  0  0  0  0
 35 77  1  0  0  0  0
 35 78  1  0  0  0  0
 36 37  1  0  0  0  0
 36 79  1  0  0  0  0
 36 80  1  0  0  0  0
 37 38  1  0  0  0  0
 37 81  1  0  0  0  0
 37 82  1  0  0  0  0
 38 39  1  0  0  0  0
 38 40  1  0  0  0  0
 39 83  1  0  0  0  0
 39 84  1  0  0  0  0
 40 41  2  0  0  0  0
 40 42  2  0  0  0  0
 40 43  1  0  0  0  0
 43 85  1  0  0  0  0
 43 86  1  0  0  0  0
 43 87  1  0  0  0  0
M  CHG  2   5   1  30   1
M  END
