CatS_103:1_D
 OpenBabel12041818463D

 87 91  0  0  1  0  0  0  0  0999 V2000
   41.4659   -7.1473   37.9927 C   0  0  0  0  0  0  0  0  0  0  0  0
   42.3486   -7.7940   37.1641 C   0  0  0  0  0  0  0  0  0  0  0  0
   42.0835   -9.0599   36.6864 C   0  0  0  0  0  0  0  0  0  0  0  0
   40.8917   -9.6613   37.0695 C   0  0  0  0  0  0  0  0  0  0  0  0
   40.0016   -9.0159   37.9001 C   0  0  0  0  0  0  0  0  0  0  0  0
   40.2833   -7.7459   38.3772 C   0  0  0  0  0  0  0  0  0  0  0  0
   39.4061   -6.9923   39.2560 C   0  0  0  0  0  0  0  0  0  0  0  0
   38.0527   -6.6045   39.1147 C   0  0  0  0  0  0  0  0  0  0  0  0
   37.7848   -5.9680   40.2634 C   0  0  0  0  0  0  0  0  0  0  0  0
   38.8589   -5.9196   41.0946 N   0  0  0  0  0  0  0  0  0  0  0  0
   39.8301   -6.5617   40.4184 N   0  0  0  0  0  0  0  0  0  0  0  0
   39.0575   -5.2689   42.4011 C   0  0  0  0  0  0  0  0  0  0  0  0
   39.4514   -6.2102   43.5629 C   0  0  2  0  0  0  0  0  0  0  0  0
   40.8076   -5.7848   44.1647 C   0  0  0  0  0  0  0  0  0  0  0  0
   41.4707   -6.7736   45.0897 N   0  3  1  0  0  0  0  0  0  0  0  0
   42.4763   -6.0766   45.9768 C   0  0  0  0  0  0  0  0  0  0  0  0
   43.1453   -7.0398   46.9755 C   0  0  0  0  0  0  0  0  0  0  0  0
   42.0606   -7.7274   47.8211 C   0  0  1  0  0  0  0  0  0  0  0  0
   41.1632   -8.5478   46.8699 C   0  0  0  0  0  0  0  0  0  0  0  0
   40.4707   -7.6030   45.8643 C   0  0  0  0  0  0  0  0  0  0  0  0
   42.7334   -8.3529   48.9744 N   0  0  0  0  0  0  0  0  0  0  0  0
   42.1147   -8.5158   50.1647 C   0  0  0  0  0  0  0  0  0  0  0  0
   40.9558   -8.1540   50.3886 O   0  0  0  0  0  0  0  0  0  0  0  0
   42.8581   -9.1130   51.1153 N   0  0  0  0  0  0  0  0  0  0  0  0
   39.5240   -7.5634   43.0908 O   0  0  0  0  0  0  0  0  0  0  0  0
   36.4262   -5.3534   40.5748 C   0  0  0  0  0  0  0  0  0  0  0  0
   35.3271   -5.7862   39.5774 C   0  0  0  0  0  0  0  0  0  0  0  0
   35.8891   -5.8336   38.1799 N   0  3  0  0  0  0  0  0  0  0  0  0
   37.0385   -6.7977   37.9954 C   0  0  0  0  0  0  0  0  0  0  0  0
   40.4498  -11.3134   36.5171 S   0  0  0  0  0  0  0  0  0  0  0  0
   38.6717  -11.2670   36.1683 C   0  0  0  0  0  0  0  0  0  0  0  0
   38.3311  -12.0255   34.8655 C   0  0  0  0  0  0  0  0  0  0  0  0
   36.8937  -12.4733   34.7547 N   0  3  2  0  0  0  0  0  0  0  0  0
   36.5151  -12.8095   33.3301 C   0  0  0  0  0  0  0  0  0  0  0  0
   34.9834  -12.8876   33.1212 C   0  0  0  0  0  0  0  0  0  0  0  0
   34.2706  -13.2695   34.4323 C   0  0  1  0  0  0  0  0  0  0  0  0
   34.5030  -12.1914   35.5169 C   0  0  0  0  0  0  0  0  0  0  0  0
   35.9024  -11.5388   35.4002 C   0  0  0  0  0  0  0  0  0  0  0  0
   32.9071  -13.4069   34.1963 F   0  0  0  0  0  0  0  0  0  0  0  0
   43.1401   -9.6827   35.7761 C   0  0  0  0  0  0  0  0  0  0  0  0
   42.9060   -9.4670   34.4204 F   0  0  0  0  0  0  0  0  0  0  0  0
   43.2000  -11.0590   35.9566 F   0  0  0  0  0  0  0  0  0  0  0  0
   44.4021   -9.1684   36.0517 F   0  0  0  0  0  0  0  0  0  0  0  0
   38.7539   -6.1496   44.2769 H   0  0  0  0  0  0  0  0  0  0  0  0
   41.6829   -6.2285   38.3226 H   0  0  0  0  0  0  0  0  0  0  0  0
   43.1995   -7.3388   36.9022 H   0  0  0  0  0  0  0  0  0  0  0  0
   39.1476   -9.4666   38.1600 H   0  0  0  0  0  0  0  0  0  0  0  0
   38.2052   -4.8089   42.6500 H   0  0  0  0  0  0  0  0  0  0  0  0
   39.8304   -4.6458   42.2816 H   0  0  0  0  0  0  0  0  0  0  0  0
   40.6628   -4.9370   44.6750 H   0  0  0  0  0  0  0  0  0  0  0  0
   41.4275   -5.6958   43.3851 H   0  0  0  0  0  0  0  0  0  0  0  0
   41.9510   -7.3513   44.5737 H   0  0  0  0  0  0  0  0  0  0  0  0
   42.0100   -5.3539   46.4870 H   0  0  0  0  0  0  0  0  0  0  0  0
   43.1935   -5.7025   45.3889 H   0  0  0  0  0  0  0  0  0  0  0  0
   43.7637   -6.5285   47.5722 H   0  0  0  0  0  0  0  0  0  0  0  0
   43.6677   -7.7309   46.4761 H   0  0  0  0  0  0  0  0  0  0  0  0
   41.3873   -7.1374   48.2666 H   0  0  0  0  0  0  0  0  0  0  0  0
   40.4713   -9.0360   47.4018 H   0  0  0  0  0  0  0  0  0  0  0  0
   41.7255   -9.2068   46.3704 H   0  0  0  0  0  0  0  0  0  0  0  0
   39.9339   -8.1488   45.2209 H   0  0  0  0  0  0  0  0  0  0  0  0
   39.8842   -6.9789   46.3804 H   0  0  0  0  0  0  0  0  0  0  0  0
   43.5584   -8.6448   48.8729 H   0  0  0  0  0  0  0  0  0  0  0  0
   43.6856   -9.3621   50.9479 H   0  0  0  0  0  0  0  0  0  0  0  0
   42.5138   -9.2560   51.9122 H   0  0  0  0  0  0  0  0  0  0  0  0
   40.4594   -7.8034   42.8093 H   0  0  0  0  0  0  0  0  0  0  0  0
   36.5111   -4.3574   40.5473 H   0  0  0  0  0  0  0  0  0  0  0  0
   36.1515   -5.6762   41.4805 H   0  0  0  0  0  0  0  0  0  0  0  0
   34.5711   -5.1325   39.6112 H   0  0  0  0  0  0  0  0  0  0  0  0
   34.9966   -6.6961   39.8280 H   0  0  0  0  0  0  0  0  0  0  0  0
   35.2254   -6.0227   37.5858 H   0  0  0  0  0  0  0  0  0  0  0  0
   36.1574   -4.9935   37.9522 H   0  0  0  0  0  0  0  0  0  0  0  0
   36.6949   -7.7366   38.0141 H   0  0  0  0  0  0  0  0  0  0  0  0
   37.4790   -6.6225   37.1149 H   0  0  0  0  0  0  0  0  0  0  0  0
   38.3815  -10.3143   36.0780 H   0  0  0  0  0  0  0  0  0  0  0  0
   38.1918  -11.7122   36.9241 H   0  0  0  0  0  0  0  0  0  0  0  0
   38.9170  -12.8342   34.8118 H   0  0  0  0  0  0  0  0  0  0  0  0
   38.4839  -11.3819   34.1155 H   0  0  0  0  0  0  0  0  0  0  0  0
   36.8358  -13.2530   35.2219 H   0  0  0  0  0  0  0  0  0  0  0  0
   36.9185  -13.6925   33.0905 H   0  0  0  0  0  0  0  0  0  0  0  0
   36.8612  -12.0762   32.7451 H   0  0  0  0  0  0  0  0  0  0  0  0
   34.7809  -13.5744   32.4230 H   0  0  0  0  0  0  0  0  0  0  0  0
   34.6539  -11.9899   32.8286 H   0  0  0  0  0  0  0  0  0  0  0  0
   34.6472  -14.1360   34.7597 H   0  0  0  0  0  0  0  0  0  0  0  0
   34.4165  -12.6154   36.4185 H   0  0  0  0  0  0  0  0  0  0  0  0
   33.8186  -11.4737   35.3887 H   0  0  0  0  0  0  0  0  0  0  0  0
   35.8313  -10.7069   34.8498 H   0  0  0  0  0  0  0  0  0  0  0  0
   36.2262  -11.3249   36.3219 H   0  0  0  0  0  0  0  0  0  0  0  0
  1  2  2  0  0  0  0
  1  6  1  0  0  0  0
  1 45  1  0  0  0  0
  2  3  1  0  0  0  0
  2 46  1  0  0  0  0
  3  4  2  0  0  0  0
  3 40  1  0  0  0  0
  4  5  1  0  0  0  0
  4 30  1  0  0  0  0
  5  6  2  0  0  0  0
  5 47  1  0  0  0  0
  6  7  1  0  0  0  0
  7  8  1  0  0  0  0
  7 11  2  0  0  0  0
  8  9  2  0  0  0  0
  8 29  1  0  0  0  0
  9 10  1  0  0  0  0
  9 26  1  0  0  0  0
 10 11  1  0  0  0  0
 10 12  1  0  0  0  0
 12 13  1  0  0  0  0
 12 48  1  0  0  0  0
 12 49  1  0  0  0  0
 13 14  1  0  0  0  0
 13 25  1  0  0  0  0
 13 44  1  1  0  0  0
 14 15  1  0  0  0  0
 14 50  1  0  0  0  0
 14 51  1  0  0  0  0
 15 16  1  0  0  0  0
 15 20  1  0  0  0  0
 15 52  1  6  0  0  0
 16 17  1  0  0  0  0
 16 53  1  0  0  0  0
 16 54  1  0  0  0  0
 17 18  1  0  0  0  0
 17 55  1  0  0  0  0
 17 56  1  0  0  0  0
 18 19  1  0  0  0  0
 18 21  1  0  0  0  0
 18 57  1  1  0  0  0
 19 20  1  0  0  0  0
 19 58  1  0  0  0  0
 19 59  1  0  0  0  0
 20 60  1  0  0  0  0
 20 61  1  0  0  0  0
 21 22  1  0  0  0  0
 21 62  1  0  0  0  0
 22 23  2  0  0  0  0
 22 24  1  0  0  0  0
 24 63  1  0  0  0  0
 24 64  1  0  0  0  0
 25 65  1  0  0  0  0
 26 27  1  0  0  0  0
 26 66  1  0  0  0  0
 26 67  1  0  0  0  0
 27 28  1  0  0  0  0
 27 68  1  0  0  0  0
 27 69  1  0  0  0  0
 28 29  1  0  0  0  0
 28 70  1  0  0  0  0
 28 71  1  0  0  0  0
 29 72  1  0  0  0  0
 29 73  1  0  0  0  0
 30 31  1  0  0  0  0
 31 32  1  0  0  0  0
 31 74  1  0  0  0  0
 31 75  1  0  0  0  0
 32 33  1  0  0  0  0
 32 76  1  0  0  0  0
 32 77  1  0  0  0  0
 33 34  1  0  0  0  0
 33 38  1  0  0  0  0
 33 78  1  1  0  0  0
 34 35  1  0  0  0  0
 34 79  1  0  0  0  0
 34 80  1  0  0  0  0
 35 36  1  0  0  0  0
 35 81  1  0  0  0  0
 35 82  1  0  0  0  0
 36 37  1  0  0  0  0
 36 39  1  0  0  0  0
 36 83  1  1  0  0  0
 37 38  1  0  0  0  0
 37 84  1  0  0  0  0
 37 85  1  0  0  0  0
 38 86  1  0  0  0  0
 38 87  1  0  0  0  0
 40 41  1  0  0  0  0
 40 42  1  0  0  0  0
 40 43  1  0  0  0  0
M  CHG  3  15   1  28   1  33   1
M  END
