CatS_261:1_D
 OpenBabel12041818463D

 98104  0  0  0  0  0  0  0  0999 V2000
   38.7460   -5.4834   39.5184 C   0  0  0  0  0  0  0  0  0  0  0  0
   37.9254   -5.0445   41.0752 S   0  0  0  0  0  0  0  0  0  0  0  0
   36.7000   -5.7716   41.1455 O   0  0  0  0  0  0  0  0  0  0  0  0
   37.8781   -3.6216   41.1644 O   0  0  0  0  0  0  0  0  0  0  0  0
   38.8343   -5.5601   42.3199 N   0  0  0  0  0  0  0  0  0  0  0  0
   39.0730   -7.0141   42.4241 C   0  0  0  0  0  0  0  0  0  0  0  0
   39.4562   -7.4232   43.8646 C   0  0  0  0  0  0  0  0  0  0  0  0
   40.5084   -6.4883   44.4341 C   0  0  0  0  0  0  0  0  0  0  0  0
   40.7980   -5.3156   43.8644 C   0  0  0  0  0  0  0  0  0  0  0  0
   41.8158   -4.7858   44.6958 C   0  0  0  0  0  0  0  0  0  0  0  0
   42.0371   -5.6416   45.6698 N   0  0  0  0  0  0  0  0  0  0  0  0
   41.2395   -6.7254   45.5511 N   0  0  0  0  0  0  0  0  0  0  0  0
   41.1901   -7.8445   46.5022 C   0  0  0  0  0  0  0  0  0  0  0  0
   41.6285   -9.1955   45.9085 C   0  0  0  0  0  0  0  0  0  0  0  0
   41.1406  -10.3398   46.8220 C   0  0  0  0  0  0  0  0  0  0  0  0
   40.5106  -11.4927   46.0809 N   0  3  0  0  0  0  0  0  0  0  0  0
   40.4383  -12.7631   46.8906 C   0  0  0  0  0  0  0  0  0  0  0  0
   39.8029  -13.8994   46.0629 C   0  0  0  0  0  0  0  0  0  0  0  0
   38.5022  -13.5245   45.4697 N   0  0  0  0  0  0  0  0  0  0  0  0
   38.5984  -12.2813   44.6786 C   0  0  0  0  0  0  0  0  0  0  0  0
   39.1673  -11.1173   45.5110 C   0  0  0  0  0  0  0  0  0  0  0  0
   37.5643  -14.5111   45.1160 C   0  0  0  0  0  0  0  0  0  0  0  0
   37.8932  -15.8508   45.1307 C   0  0  0  0  0  0  0  0  0  0  0  0
   36.9507  -16.7741   44.7743 C   0  0  0  0  0  0  0  0  0  0  0  0
   35.6959  -16.3462   44.4124 C   0  0  0  0  0  0  0  0  0  0  0  0
   35.3255  -15.0515   44.3878 N   0  0  0  0  0  0  0  0  0  0  0  0
   36.2762  -14.1667   44.7440 C   0  0  0  0  0  0  0  0  0  0  0  0
   42.5639   -3.5439   44.5806 C   0  0  0  0  0  0  0  0  0  0  0  0
   42.2889   -2.4190   45.3510 C   0  0  0  0  0  0  0  0  0  0  0  0
   43.0324   -1.2671   45.2082 C   0  0  0  0  0  0  0  0  0  0  0  0
   44.0576   -1.2110   44.2955 C   0  0  0  0  0  0  0  0  0  0  0  0
   44.3432   -2.3257   43.5125 C   0  0  0  0  0  0  0  0  0  0  0  0
   43.5938   -3.4849   43.6676 C   0  0  0  0  0  0  0  0  0  0  0  0
   45.3955   -2.2823   42.5300 C   0  0  0  0  0  0  0  0  0  0  0  0
   46.2826   -2.2701   41.6925 C   0  0  0  0  0  0  0  0  0  0  0  0
   47.3199   -2.2893   40.6938 C   0  0  0  0  0  0  0  0  0  0  0  0
   47.0036   -2.2052   39.3430 C   0  0  0  0  0  0  0  0  0  0  0  0
   47.9988   -2.2855   38.4028 C   0  0  0  0  0  0  0  0  0  0  0  0
   49.3185   -2.4466   38.7776 C   0  0  0  0  0  0  0  0  0  0  0  0
   49.6327   -2.5064   40.1235 C   0  0  0  0  0  0  0  0  0  0  0  0
   48.6491   -2.4271   41.0758 C   0  0  0  0  0  0  0  0  0  0  0  0
   50.3325   -2.5975   37.6464 C   0  0  0  0  0  0  0  0  0  0  0  0
   50.5147   -3.9791   37.0579 N   0  3  0  0  0  0  0  0  0  0  0  0
   51.2861   -4.0548   35.7614 C   0  0  0  0  0  0  0  0  0  0  0  0
   51.4466   -5.4451   35.1603 C   0  0  0  0  0  0  0  0  0  0  0  0
   52.5507   -5.7169   34.3819 C   0  0  0  0  0  0  0  0  0  0  0  0
   52.7418   -6.9741   33.8563 C   0  0  0  0  0  0  0  0  0  0  0  0
   51.8246   -7.9704   34.1047 C   0  0  0  0  0  0  0  0  0  0  0  0
   50.7163   -7.7041   34.8766 C   0  0  0  0  0  0  0  0  0  0  0  0
   50.5319   -6.4468   35.4044 C   0  0  0  0  0  0  0  0  0  0  0  0
   52.0679   -9.5633   33.4511 Cl  0  0  0  0  0  0  0  0  0  0  0  0
   44.9875    0.2477   44.1155 Cl  0  0  0  0  0  0  0  0  0  0  0  0
   40.0955   -4.8348   42.5995 C   0  0  0  0  0  0  0  0  0  0  0  0
   39.6014   -5.9589   39.7241 H   0  0  0  0  0  0  0  0  0  0  0  0
   38.1510   -6.0790   38.9790 H   0  0  0  0  0  0  0  0  0  0  0  0
   38.9384   -4.6541   38.9938 H   0  0  0  0  0  0  0  0  0  0  0  0
   39.8145   -7.2685   41.8032 H   0  0  0  0  0  0  0  0  0  0  0  0
   38.2280   -7.4891   42.1786 H   0  0  0  0  0  0  0  0  0  0  0  0
   39.8145   -8.3567   43.8566 H   0  0  0  0  0  0  0  0  0  0  0  0
   38.6393   -7.3691   44.4389 H   0  0  0  0  0  0  0  0  0  0  0  0
   40.2511   -7.9348   46.8342 H   0  0  0  0  0  0  0  0  0  0  0  0
   41.8374   -7.6293   47.2334 H   0  0  0  0  0  0  0  0  0  0  0  0
   42.6257   -9.2230   45.8386 H   0  0  0  0  0  0  0  0  0  0  0  0
   41.2308   -9.3045   44.9974 H   0  0  0  0  0  0  0  0  0  0  0  0
   40.4670   -9.9681   47.4609 H   0  0  0  0  0  0  0  0  0  0  0  0
   41.9487  -10.7034   47.2854 H   0  0  0  0  0  0  0  0  0  0  0  0
   41.0512  -11.6632   45.3666 H   0  0  0  0  0  0  0  0  0  0  0  0
   39.8874  -12.6018   47.7093 H   0  0  0  0  0  0  0  0  0  0  0  0
   41.3657  -13.0338   47.1487 H   0  0  0  0  0  0  0  0  0  0  0  0
   39.6681  -14.6918   46.6577 H   0  0  0  0  0  0  0  0  0  0  0  0
   40.4263  -14.1038   45.3082 H   0  0  0  0  0  0  0  0  0  0  0  0
   37.6868  -12.0330   44.3508 H   0  0  0  0  0  0  0  0  0  0  0  0
   39.2197  -12.4473   43.9128 H   0  0  0  0  0  0  0  0  0  0  0  0
   39.2676  -10.3100   44.9294 H   0  0  0  0  0  0  0  0  0  0  0  0
   38.5386  -10.9175   46.2625 H   0  0  0  0  0  0  0  0  0  0  0  0
   38.8110  -16.1431   45.3993 H   0  0  0  0  0  0  0  0  0  0  0  0
   37.1715  -17.7495   44.7767 H   0  0  0  0  0  0  0  0  0  0  0  0
   35.0193  -17.0352   44.1525 H   0  0  0  0  0  0  0  0  0  0  0  0
   36.0355  -13.1961   44.7394 H   0  0  0  0  0  0  0  0  0  0  0  0
   41.5429   -2.4462   46.0164 H   0  0  0  0  0  0  0  0  0  0  0  0
   42.8244   -0.4679   45.7721 H   0  0  0  0  0  0  0  0  0  0  0  0
   43.8050   -4.2872   43.1092 H   0  0  0  0  0  0  0  0  0  0  0  0
   46.0526   -2.0864   39.0574 H   0  0  0  0  0  0  0  0  0  0  0  0
   47.7658   -2.2265   37.4320 H   0  0  0  0  0  0  0  0  0  0  0  0
   50.5868   -2.6087   40.4050 H   0  0  0  0  0  0  0  0  0  0  0  0
   48.8885   -2.4685   42.0458 H   0  0  0  0  0  0  0  0  0  0  0  0
   51.2204   -2.2974   37.9951 H   0  0  0  0  0  0  0  0  0  0  0  0
   49.9644   -2.0472   36.8969 H   0  0  0  0  0  0  0  0  0  0  0  0
   49.6999   -4.3447   36.8925 H   0  0  0  0  0  0  0  0  0  0  0  0
   50.8827   -4.5412   37.6725 H   0  0  0  0  0  0  0  0  0  0  0  0
   52.1995   -3.6822   35.9251 H   0  0  0  0  0  0  0  0  0  0  0  0
   50.7480   -3.5359   35.0971 H   0  0  0  0  0  0  0  0  0  0  0  0
   53.2180   -4.9952   34.1976 H   0  0  0  0  0  0  0  0  0  0  0  0
   53.5467   -7.1641   33.2940 H   0  0  0  0  0  0  0  0  0  0  0  0
   50.0454   -8.4241   35.0540 H   0  0  0  0  0  0  0  0  0  0  0  0
   49.7284   -6.2585   35.9691 H   0  0  0  0  0  0  0  0  0  0  0  0
   39.8887   -3.8614   42.6984 H   0  0  0  0  0  0  0  0  0  0  0  0
   40.7141   -5.0092   41.8334 H   0  0  0  0  0  0  0  0  0  0  0  0
  1  2  1  0  0  0  0
  1 54  1  0  0  0  0
  1 55  1  0  0  0  0
  1 56  1  0  0  0  0
  2  3  2  0  0  0  0
  2  4  2  0  0  0  0
  2  5  1  0  0  0  0
  5  6  1  0  0  0  0
  5 53  1  0  0  0  0
  6  7  1  0  0  0  0
  6 57  1  0  0  0  0
  6 58  1  0  0  0  0
  7  8  1  0  0  0  0
  7 59  1  0  0  0  0
  7 60  1  0  0  0  0
  8  9  2  0  0  0  0
  8 12  1  0  0  0  0
  9 10  1  0  0  0  0
  9 53  1  0  0  0  0
 10 11  2  0  0  0  0
 10 28  1  0  0  0  0
 11 12  1  0  0  0  0
 12 13  1  0  0  0  0
 13 14  1  0  0  0  0
 13 61  1  0  0  0  0
 13 62  1  0  0  0  0
 14 15  1  0  0  0  0
 14 63  1  0  0  0  0
 14 64  1  0  0  0  0
 15 16  1  0  0  0  0
 15 65  1  0  0  0  0
 15 66  1  0  0  0  0
 16 17  1  0  0  0  0
 16 21  1  0  0  0  0
 16 67  1  0  0  0  0
 17 18  1  0  0  0  0
 17 68  1  0  0  0  0
 17 69  1  0  0  0  0
 18 19  1  0  0  0  0
 18 70  1  0  0  0  0
 18 71  1  0  0  0  0
 19 20  1  0  0  0  0
 19 22  1  0  0  0  0
 20 21  1  0  0  0  0
 20 72  1  0  0  0  0
 20 73  1  0  0  0  0
 21 74  1  0  0  0  0
 21 75  1  0  0  0  0
 22 23  2  0  0  0  0
 22 27  1  0  0  0  0
 23 24  1  0  0  0  0
 23 76  1  0  0  0  0
 24 25  2  0  0  0  0
 24 77  1  0  0  0  0
 25 26  1  0  0  0  0
 25 78  1  0  0  0  0
 26 27  2  0  0  0  0
 27 79  1  0  0  0  0
 28 29  2  0  0  0  0
 28 33  1  0  0  0  0
 29 30  1  0  0  0  0
 29 80  1  0  0  0  0
 30 31  2  0  0  0  0
 30 81  1  0  0  0  0
 31 32  1  0  0  0  0
 31 52  1  0  0  0  0
 32 33  2  0  0  0  0
 32 34  1  0  0  0  0
 33 82  1  0  0  0  0
 34 35  3  0  0  0  0
 35 36  1  0  0  0  0
 36 37  2  0  0  0  0
 36 41  1  0  0  0  0
 37 38  1  0  0  0  0
 37 83  1  0  0  0  0
 38 39  2  0  0  0  0
 38 84  1  0  0  0  0
 39 40  1  0  0  0  0
 39 42  1  0  0  0  0
 40 41  2  0  0  0  0
 40 85  1  0  0  0  0
 41 86  1  0  0  0  0
 42 43  1  0  0  0  0
 42 87  1  0  0  0  0
 42 88  1  0  0  0  0
 43 44  1  0  0  0  0
 43 89  1  0  0  0  0
 43 90  1  0  0  0  0
 44 45  1  0  0  0  0
 44 91  1  0  0  0  0
 44 92  1  0  0  0  0
 45 46  2  0  0  0  0
 45 50  1  0  0  0  0
 46 47  1  0  0  0  0
 46 93  1  0  0  0  0
 47 48  2  0  0  0  0
 47 94  1  0  0  0  0
 48 49  1  0  0  0  0
 48 51  1  0  0  0  0
 49 50  2  0  0  0  0
 49 95  1  0  0  0  0
 50 96  1  0  0  0  0
 53 97  1  0  0  0  0
 53 98  1  0  0  0  0
M  CHG  2  16   1  43   1
M  END
