CatS_22:1_D
 OpenBabel12041818463D

 99104  0  0  0  0  0  0  0  0999 V2000
   38.7002   -9.3325   46.9908 C   0  0  0  0  0  0  0  0  0  0  0  0
   40.3340   -9.6216   46.2587 S   0  0  0  0  0  0  0  0  0  0  0  0
   41.2212  -10.0021   47.3078 O   0  0  0  0  0  0  0  0  0  0  0  0
   40.1746  -10.5041   45.1496 O   0  0  0  0  0  0  0  0  0  0  0  0
   40.9132   -8.2237   45.6733 N   0  0  0  0  0  0  0  0  0  0  0  0
   41.6292   -7.3449   46.6209 C   0  0  0  0  0  0  0  0  0  0  0  0
   42.5242   -6.3121   45.8999 C   0  0  0  0  0  0  0  0  0  0  0  0
   41.7758   -5.6498   44.7571 C   0  0  0  0  0  0  0  0  0  0  0  0
   40.6339   -6.1457   44.2737 C   0  0  0  0  0  0  0  0  0  0  0  0
   40.2682   -5.2184   43.2670 C   0  0  0  0  0  0  0  0  0  0  0  0
   41.1901   -4.2825   43.2200 N   0  0  0  0  0  0  0  0  0  0  0  0
   42.1692   -4.5193   44.1203 N   0  0  0  0  0  0  0  0  0  0  0  0
   43.4389   -3.7813   44.1854 C   0  0  0  0  0  0  0  0  0  0  0  0
   43.5027   -2.6007   45.1726 C   0  0  0  0  0  0  0  0  0  0  0  0
   42.4742   -1.5066   44.8069 C   0  0  0  0  0  0  0  0  0  0  0  0
   42.3626   -0.4123   45.8348 N   0  3  2  0  0  0  0  0  0  0  0  0
   43.6933    0.0148   46.4021 C   0  0  0  0  0  0  0  0  0  0  0  0
   43.4977    1.2150   47.3490 C   0  0  0  0  0  0  0  0  0  0  0  0
   42.5131    0.8501   48.4823 C   0  0  2  0  0  0  0  0  0  0  0  0
   41.1600    0.4227   47.8752 C   0  0  0  0  0  0  0  0  0  0  0  0
   41.3694   -0.7646   46.9129 C   0  0  0  0  0  0  0  0  0  0  0  0
   42.3304    1.8519   49.5496 N   0  0  0  0  0  0  0  0  0  0  0  0
   42.2731    1.4561   50.9602 C   0  0  0  0  0  0  0  0  0  0  0  0
   42.4758    2.8185   51.6499 C   0  0  0  0  0  0  0  0  0  0  0  0
   42.0840    3.8906   50.6178 C   0  0  0  0  0  0  0  0  0  0  0  0
   42.1954    3.1632   49.3050 C   0  0  0  0  0  0  0  0  0  0  0  0
   42.1728    3.7132   48.2133 O   0  0  0  0  0  0  0  0  0  0  0  0
   39.1156   -5.2066   42.3814 C   0  0  0  0  0  0  0  0  0  0  0  0
   37.9466   -4.5361   42.7050 C   0  0  0  0  0  0  0  0  0  0  0  0
   36.8703   -4.5515   41.8494 C   0  0  0  0  0  0  0  0  0  0  0  0
   36.9198   -5.2167   40.6420 C   0  0  0  0  0  0  0  0  0  0  0  0
   38.0995   -5.8680   40.3115 C   0  0  0  0  0  0  0  0  0  0  0  0
   39.1741   -5.8689   41.1711 C   0  0  0  0  0  0  0  0  0  0  0  0
   38.2950   -6.7268   38.7450 S   0  0  0  0  0  0  0  0  0  0  0  0
   39.8780   -7.6087   38.8241 C   0  0  0  0  0  0  0  0  0  0  0  0
   39.8882   -8.8040   37.8521 C   0  0  0  0  0  0  0  0  0  0  0  0
   41.0171   -8.6761   36.8620 N   0  3  0  0  0  0  0  0  0  0  0  0
   42.3813   -9.1076   37.3359 C   0  0  0  0  0  0  0  0  0  0  0  0
   43.3328   -7.8913   37.2607 C   0  0  0  0  0  0  0  0  0  0  0  0
   43.5734   -7.4595   35.8006 C   0  0  0  0  0  0  0  0  0  0  0  0
   44.1648   -8.6339   34.9984 C   0  0  0  0  0  0  0  0  0  0  0  0
   43.1907   -9.8271   35.0358 C   0  0  0  0  0  0  0  0  0  0  0  0
   42.9480  -10.2734   36.4925 C   0  0  0  0  0  0  0  0  0  0  0  0
   35.6629   -5.1685   39.7756 C   0  0  0  0  0  0  0  0  0  0  0  0
   34.8105   -4.1514   40.1894 F   0  0  0  0  0  0  0  0  0  0  0  0
   35.9748   -4.9306   38.4415 F   0  0  0  0  0  0  0  0  0  0  0  0
   34.9320   -6.3529   39.8087 F   0  0  0  0  0  0  0  0  0  0  0  0
   39.9996   -7.4127   44.8364 C   0  0  0  0  0  0  0  0  0  0  0  0
   38.4667   -8.3649   46.8941 H   0  0  0  0  0  0  0  0  0  0  0  0
   38.0164   -9.8923   46.5227 H   0  0  0  0  0  0  0  0  0  0  0  0
   38.7165   -9.5809   47.9593 H   0  0  0  0  0  0  0  0  0  0  0  0
   42.2007   -7.9095   47.2164 H   0  0  0  0  0  0  0  0  0  0  0  0
   40.9448   -6.8406   47.1474 H   0  0  0  0  0  0  0  0  0  0  0  0
   43.3346   -6.7741   45.5396 H   0  0  0  0  0  0  0  0  0  0  0  0
   42.7902   -5.6067   46.5568 H   0  0  0  0  0  0  0  0  0  0  0  0
   43.6315   -3.4255   43.2709 H   0  0  0  0  0  0  0  0  0  0  0  0
   44.1096   -4.4415   44.5238 H   0  0  0  0  0  0  0  0  0  0  0  0
   44.4217   -2.2069   45.1530 H   0  0  0  0  0  0  0  0  0  0  0  0
   43.2863   -2.9423   46.0872 H   0  0  0  0  0  0  0  0  0  0  0  0
   41.5776   -1.9368   44.7017 H   0  0  0  0  0  0  0  0  0  0  0  0
   42.7915   -1.0791   43.9605 H   0  0  0  0  0  0  0  0  0  0  0  0
   42.0169    0.3141   45.4055 H   0  0  0  0  0  0  0  0  0  0  0  0
   44.3060    0.2743   45.6556 H   0  0  0  0  0  0  0  0  0  0  0  0
   44.0927   -0.7458   46.9140 H   0  0  0  0  0  0  0  0  0  0  0  0
   43.1357    1.9900   46.8310 H   0  0  0  0  0  0  0  0  0  0  0  0
   44.3800    1.4577   47.7524 H   0  0  0  0  0  0  0  0  0  0  0  0
   42.9464    0.0881   48.9636 H   0  0  0  0  0  0  0  0  0  0  0  0
   40.7612    1.1917   47.3756 H   0  0  0  0  0  0  0  0  0  0  0  0
   40.5421    0.1446   48.6105 H   0  0  0  0  0  0  0  0  0  0  0  0
   41.7084   -1.5516   47.4282 H   0  0  0  0  0  0  0  0  0  0  0  0
   40.4940   -0.9843   46.4822 H   0  0  0  0  0  0  0  0  0  0  0  0
   43.0005    0.8107   51.1931 H   0  0  0  0  0  0  0  0  0  0  0  0
   41.4337    0.9805   51.2233 H   0  0  0  0  0  0  0  0  0  0  0  0
   43.4312    2.9307   51.9233 H   0  0  0  0  0  0  0  0  0  0  0  0
   41.9188    2.8924   52.4770 H   0  0  0  0  0  0  0  0  0  0  0  0
   42.7096    4.6699   50.6530 H   0  0  0  0  0  0  0  0  0  0  0  0
   41.1737    4.2728   50.7766 H   0  0  0  0  0  0  0  0  0  0  0  0
   37.8853   -4.0362   43.5690 H   0  0  0  0  0  0  0  0  0  0  0  0
   36.0330   -4.0698   42.1083 H   0  0  0  0  0  0  0  0  0  0  0  0
   40.0093   -6.3561   40.9158 H   0  0  0  0  0  0  0  0  0  0  0  0
   40.0242   -7.9398   39.7563 H   0  0  0  0  0  0  0  0  0  0  0  0
   40.6090   -6.9784   38.5624 H   0  0  0  0  0  0  0  0  0  0  0  0
   39.0184   -8.8359   37.3597 H   0  0  0  0  0  0  0  0  0  0  0  0
   40.0174   -9.6446   38.3780 H   0  0  0  0  0  0  0  0  0  0  0  0
   41.0703   -7.8037   36.6052 H   0  0  0  0  0  0  0  0  0  0  0  0
   40.8002   -9.1197   36.0966 H   0  0  0  0  0  0  0  0  0  0  0  0
   42.3018   -9.4379   38.2763 H   0  0  0  0  0  0  0  0  0  0  0  0
   44.2078   -8.1337   37.6800 H   0  0  0  0  0  0  0  0  0  0  0  0
   42.9095   -7.1283   37.7491 H   0  0  0  0  0  0  0  0  0  0  0  0
   44.2093   -6.6879   35.7818 H   0  0  0  0  0  0  0  0  0  0  0  0
   42.7033   -7.1864   35.3902 H   0  0  0  0  0  0  0  0  0  0  0  0
   45.0412   -8.9036   35.3973 H   0  0  0  0  0  0  0  0  0  0  0  0
   44.3052   -8.3508   34.0496 H   0  0  0  0  0  0  0  0  0  0  0  0
   43.5782  -10.5878   34.5151 H   0  0  0  0  0  0  0  0  0  0  0  0
   42.3192   -9.5485   34.6325 H   0  0  0  0  0  0  0  0  0  0  0  0
   42.2977  -11.0330   36.5015 H   0  0  0  0  0  0  0  0  0  0  0  0
   43.8202  -10.5611   36.8882 H   0  0  0  0  0  0  0  0  0  0  0  0
   39.2103   -7.1519   45.3922 H   0  0  0  0  0  0  0  0  0  0  0  0
   39.7458   -7.9798   44.0529 H   0  0  0  0  0  0  0  0  0  0  0  0
  1  2  1  0  0  0  0
  1 49  1  0  0  0  0
  1 50  1  0  0  0  0
  1 51  1  0  0  0  0
  2  3  2  0  0  0  0
  2  4  2  0  0  0  0
  2  5  1  0  0  0  0
  5  6  1  0  0  0  0
  5 48  1  0  0  0  0
  6  7  1  0  0  0  0
  6 52  1  0  0  0  0
  6 53  1  0  0  0  0
  7  8  1  0  0  0  0
  7 54  1  0  0  0  0
  7 55  1  0  0  0  0
  8  9  2  0  0  0  0
  8 12  1  0  0  0  0
  9 10  1  0  0  0  0
  9 48  1  0  0  0  0
 10 11  2  0  0  0  0
 10 28  1  0  0  0  0
 11 12  1  0  0  0  0
 12 13  1  0  0  0  0
 13 14  1  0  0  0  0
 13 56  1  0  0  0  0
 13 57  1  0  0  0  0
 14 15  1  0  0  0  0
 14 58  1  0  0  0  0
 14 59  1  0  0  0  0
 15 16  1  0  0  0  0
 15 60  1  0  0  0  0
 15 61  1  0  0  0  0
 16 17  1  0  0  0  0
 16 21  1  0  0  0  0
 16 62  1  6  0  0  0
 17 18  1  0  0  0  0
 17 63  1  0  0  0  0
 17 64  1  0  0  0  0
 18 19  1  0  0  0  0
 18 65  1  0  0  0  0
 18 66  1  0  0  0  0
 19 20  1  0  0  0  0
 19 22  1  0  0  0  0
 19 67  1  1  0  0  0
 20 21  1  0  0  0  0
 20 68  1  0  0  0  0
 20 69  1  0  0  0  0
 21 70  1  0  0  0  0
 21 71  1  0  0  0  0
 22 23  1  0  0  0  0
 22 26  1  0  0  0  0
 23 24  1  0  0  0  0
 23 72  1  0  0  0  0
 23 73  1  0  0  0  0
 24 25  1  0  0  0  0
 24 74  1  0  0  0  0
 24 75  1  0  0  0  0
 25 26  1  0  0  0  0
 25 76  1  0  0  0  0
 25 77  1  0  0  0  0
 26 27  2  0  0  0  0
 28 29  2  0  0  0  0
 28 33  1  0  0  0  0
 29 30  1  0  0  0  0
 29 78  1  0  0  0  0
 30 31  2  0  0  0  0
 30 79  1  0  0  0  0
 31 32  1  0  0  0  0
 31 44  1  0  0  0  0
 32 33  2  0  0  0  0
 32 34  1  0  0  0  0
 33 80  1  0  0  0  0
 34 35  1  0  0  0  0
 35 36  1  0  0  0  0
 35 81  1  0  0  0  0
 35 82  1  0  0  0  0
 36 37  1  0  0  0  0
 36 83  1  0  0  0  0
 36 84  1  0  0  0  0
 37 38  1  0  0  0  0
 37 85  1  0  0  0  0
 37 86  1  0  0  0  0
 38 39  1  0  0  0  0
 38 43  1  0  0  0  0
 38 87  1  0  0  0  0
 39 40  1  0  0  0  0
 39 88  1  0  0  0  0
 39 89  1  0  0  0  0
 40 41  1  0  0  0  0
 40 90  1  0  0  0  0
 40 91  1  0  0  0  0
 41 42  1  0  0  0  0
 41 92  1  0  0  0  0
 41 93  1  0  0  0  0
 42 43  1  0  0  0  0
 42 94  1  0  0  0  0
 42 95  1  0  0  0  0
 43 96  1  0  0  0  0
 43 97  1  0  0  0  0
 44 45  1  0  0  0  0
 44 46  1  0  0  0  0
 44 47  1  0  0  0  0
 48 98  1  0  0  0  0
 48 99  1  0  0  0  0
M  CHG  2  16   1  37   1
M  END
