CatS_130:1_D
 OpenBabel12041818463D

100105  0  0  1  0  0  0  0  0999 V2000
   37.9519   -5.2960   41.9260 C   0  0  0  0  0  0  0  0  0  0  0  0
   37.1598   -5.3653   40.8055 C   0  0  0  0  0  0  0  0  0  0  0  0
   37.4676   -6.2129   39.7621 C   0  0  0  0  0  0  0  0  0  0  0  0
   38.6073   -6.9971   39.8793 C   0  0  0  0  0  0  0  0  0  0  0  0
   39.3955   -6.9417   41.0067 C   0  0  0  0  0  0  0  0  0  0  0  0
   39.0823   -6.0851   42.0463 C   0  0  0  0  0  0  0  0  0  0  0  0
   39.9242   -6.0220   43.2299 C   0  0  0  0  0  0  0  0  0  0  0  0
   40.1650   -7.0243   44.1942 C   0  0  0  0  0  0  0  0  0  0  0  0
   41.0092   -6.4428   45.0516 C   0  0  0  0  0  0  0  0  0  0  0  0
   41.3270   -5.1636   44.7010 N   0  0  0  0  0  0  0  0  0  0  0  0
   40.6124   -4.9536   43.5689 N   0  0  0  0  0  0  0  0  0  0  0  0
   42.2942   -4.1852   45.2357 C   0  0  0  0  0  0  0  0  0  0  0  0
   43.6945   -3.9206   44.6378 C   0  0  2  0  0  0  0  0  0  0  0  0
   43.5834   -3.3871   43.1889 C   0  0  0  0  0  0  0  0  0  0  0  0
   44.8414   -2.7271   42.6817 N   0  3  0  0  0  0  0  0  0  0  0  0
   45.4641   -1.7923   43.6898 C   0  0  0  0  0  0  0  0  0  0  0  0
   46.7962   -1.2189   43.1628 C   0  0  0  0  0  0  0  0  0  0  0  0
   46.5748   -0.5187   41.8080 C   0  0  0  0  0  0  0  0  0  0  0  0
   45.9676   -1.5091   40.7964 C   0  0  0  0  0  0  0  0  0  0  0  0
   44.6357   -2.0639   41.3415 C   0  0  0  0  0  0  0  0  0  0  0  0
   44.5164   -5.0935   44.7332 O   0  0  0  0  0  0  0  0  0  0  0  0
   41.5087   -7.2083   46.2649 C   0  0  0  0  0  0  0  0  0  0  0  0
   40.4657   -8.2418   46.7387 C   0  0  0  0  0  0  0  0  0  0  0  0
   39.9156   -9.0719   45.6468 N   0  0  0  0  0  0  0  0  0  0  0  0
   39.6413   -8.4491   44.3277 C   0  0  0  0  0  0  0  0  0  0  0  0
   39.6590  -10.3829   45.8880 C   0  0  0  0  0  0  0  0  0  0  0  0
   39.9766  -10.9102   46.9607 O   0  0  0  0  0  0  0  0  0  0  0  0
   39.0395  -11.0989   44.9219 N   0  0  0  0  0  0  0  0  0  0  0  0
   38.8125  -12.5404   45.1032 C   0  0  0  0  0  0  0  0  0  0  0  0
   37.5376  -13.0166   44.3753 C   0  0  0  0  0  0  0  0  0  0  0  0
   37.6893  -12.8045   42.8554 C   0  0  0  0  0  0  0  0  0  0  0  0
   38.9093  -13.5869   42.3290 C   0  0  0  0  0  0  0  0  0  0  0  0
   40.1883  -13.1294   43.0586 C   0  0  0  0  0  0  0  0  0  0  0  0
   40.0330  -13.3274   44.5797 C   0  0  0  0  0  0  0  0  0  0  0  0
   39.1305   -8.1023   38.5614 S   0  0  0  0  0  0  0  0  0  0  0  0
   40.7782   -8.7164   38.9991 C   0  0  0  0  0  0  0  0  0  0  0  0
   41.2855   -9.7937   38.0111 C   0  0  0  0  0  0  0  0  0  0  0  0
   42.4587   -9.3732   37.1576 N   0  3  2  0  0  0  0  0  0  0  0  0
   42.6440   -7.8727   37.1496 C   0  0  0  0  0  0  0  0  0  0  0  0
   43.5736   -7.3902   36.0093 C   0  0  0  0  0  0  0  0  0  0  0  0
   44.5642   -8.4981   35.6035 C   0  0  1  0  0  0  0  0  0  0  0  0
   43.8113   -9.7351   35.0595 C   0  0  0  0  0  0  0  0  0  0  0  0
   42.4472   -9.9447   35.7625 C   0  0  0  0  0  0  0  0  0  0  0  0
   45.4302   -8.0137   34.6290 F   0  0  0  0  0  0  0  0  0  0  0  0
   36.5182   -6.2010   38.5653 C   0  0  0  0  0  0  0  0  0  0  0  0
   37.1731   -5.7751   37.4154 F   0  0  0  0  0  0  0  0  0  0  0  0
   36.0145   -7.4717   38.3141 F   0  0  0  0  0  0  0  0  0  0  0  0
   35.4176   -5.3653   38.7351 F   0  0  0  0  0  0  0  0  0  0  0  0
   44.1445   -3.2061   45.1735 H   0  0  0  0  0  0  0  0  0  0  0  0
   37.7083   -4.6671   42.6644 H   0  0  0  0  0  0  0  0  0  0  0  0
   36.3441   -4.7900   40.7454 H   0  0  0  0  0  0  0  0  0  0  0  0
   40.2033   -7.5272   41.0747 H   0  0  0  0  0  0  0  0  0  0  0  0
   42.4517   -4.4535   46.1861 H   0  0  0  0  0  0  0  0  0  0  0  0
   41.8332   -3.3274   45.0086 H   0  0  0  0  0  0  0  0  0  0  0  0
   42.8390   -2.7203   43.1537 H   0  0  0  0  0  0  0  0  0  0  0  0
   43.4153   -4.1783   42.6008 H   0  0  0  0  0  0  0  0  0  0  0  0
   45.4457   -3.3921   42.5368 H   0  0  0  0  0  0  0  0  0  0  0  0
   45.6333   -2.2912   44.5397 H   0  0  0  0  0  0  0  0  0  0  0  0
   44.8338   -1.0330   43.8519 H   0  0  0  0  0  0  0  0  0  0  0  0
   47.4557   -1.9621   43.0496 H   0  0  0  0  0  0  0  0  0  0  0  0
   47.1472   -0.5520   43.8201 H   0  0  0  0  0  0  0  0  0  0  0  0
   47.4499   -0.1815   41.4608 H   0  0  0  0  0  0  0  0  0  0  0  0
   45.9451    0.2478   41.9337 H   0  0  0  0  0  0  0  0  0  0  0  0
   46.6064   -2.2632   40.6438 H   0  0  0  0  0  0  0  0  0  0  0  0
   45.7969   -1.0348   39.9328 H   0  0  0  0  0  0  0  0  0  0  0  0
   43.9816   -1.3143   41.4416 H   0  0  0  0  0  0  0  0  0  0  0  0
   44.2852   -2.7438   40.6974 H   0  0  0  0  0  0  0  0  0  0  0  0
   45.2582   -5.0791   44.0536 H   0  0  0  0  0  0  0  0  0  0  0  0
   41.6931   -6.5633   47.0065 H   0  0  0  0  0  0  0  0  0  0  0  0
   42.3438   -7.6960   46.0104 H   0  0  0  0  0  0  0  0  0  0  0  0
   39.7119   -7.7534   47.1782 H   0  0  0  0  0  0  0  0  0  0  0  0
   40.9334   -8.8617   47.3689 H   0  0  0  0  0  0  0  0  0  0  0  0
   40.0672   -9.0100   43.6177 H   0  0  0  0  0  0  0  0  0  0  0  0
   38.6469   -8.4018   44.2327 H   0  0  0  0  0  0  0  0  0  0  0  0
   38.7684  -10.7112   44.1828 H   0  0  0  0  0  0  0  0  0  0  0  0
   38.6881  -12.7100   46.0809 H   0  0  0  0  0  0  0  0  0  0  0  0
   36.7506  -12.4970   44.7080 H   0  0  0  0  0  0  0  0  0  0  0  0
   37.3990  -13.9900   44.5579 H   0  0  0  0  0  0  0  0  0  0  0  0
   37.8118  -11.8302   42.6665 H   0  0  0  0  0  0  0  0  0  0  0  0
   36.8661  -13.1372   42.3952 H   0  0  0  0  0  0  0  0  0  0  0  0
   39.0097  -13.4246   41.3474 H   0  0  0  0  0  0  0  0  0  0  0  0
   38.7694  -14.5626   42.4978 H   0  0  0  0  0  0  0  0  0  0  0  0
   40.3537  -12.1627   42.8638 H   0  0  0  0  0  0  0  0  0  0  0  0
   40.9609  -13.6768   42.7366 H   0  0  0  0  0  0  0  0  0  0  0  0
   39.9091  -14.2999   44.7771 H   0  0  0  0  0  0  0  0  0  0  0  0
   40.8565  -12.9891   45.0352 H   0  0  0  0  0  0  0  0  0  0  0  0
   40.7425   -9.1103   39.9175 H   0  0  0  0  0  0  0  0  0  0  0  0
   41.4125   -7.9443   38.9596 H   0  0  0  0  0  0  0  0  0  0  0  0
   40.5299  -10.0409   37.4044 H   0  0  0  0  0  0  0  0  0  0  0  0
   41.6074  -10.5573   38.5707 H   0  0  0  0  0  0  0  0  0  0  0  0
   43.2016   -9.7140   37.5584 H   0  0  0  0  0  0  0  0  0  0  0  0
   43.0368   -7.5930   38.0256 H   0  0  0  0  0  0  0  0  0  0  0  0
   41.7459   -7.4590   37.0001 H   0  0  0  0  0  0  0  0  0  0  0  0
   44.0841   -6.5877   36.3182 H   0  0  0  0  0  0  0  0  0  0  0  0
   43.0118   -7.1583   35.2151 H   0  0  0  0  0  0  0  0  0  0  0  0
   45.0841   -8.7727   36.4124 H   0  0  0  0  0  0  0  0  0  0  0  0
   44.3777  -10.5469   35.2014 H   0  0  0  0  0  0  0  0  0  0  0  0
   43.6343   -9.5838   34.0870 H   0  0  0  0  0  0  0  0  0  0  0  0
   41.7305   -9.4944   35.2298 H   0  0  0  0  0  0  0  0  0  0  0  0
   42.2724  -10.9273   35.8245 H   0  0  0  0  0  0  0  0  0  0  0  0
  1  2  2  0  0  0  0
  1  6  1  0  0  0  0
  1 50  1  0  0  0  0
  2  3  1  0  0  0  0
  2 51  1  0  0  0  0
  3  4  2  0  0  0  0
  3 45  1  0  0  0  0
  4  5  1  0  0  0  0
  4 35  1  0  0  0  0
  5  6  2  0  0  0  0
  5 52  1  0  0  0  0
  6  7  1  0  0  0  0
  7  8  1  0  0  0  0
  7 11  2  0  0  0  0
  8  9  2  0  0  0  0
  8 25  1  0  0  0  0
  9 10  1  0  0  0  0
  9 22  1  0  0  0  0
 10 11  1  0  0  0  0
 10 12  1  0  0  0  0
 12 13  1  0  0  0  0
 12 53  1  0  0  0  0
 12 54  1  0  0  0  0
 13 14  1  0  0  0  0
 13 21  1  0  0  0  0
 13 49  1  1  0  0  0
 14 15  1  0  0  0  0
 14 55  1  0  0  0  0
 14 56  1  0  0  0  0
 15 16  1  0  0  0  0
 15 20  1  0  0  0  0
 15 57  1  0  0  0  0
 16 17  1  0  0  0  0
 16 58  1  0  0  0  0
 16 59  1  0  0  0  0
 17 18  1  0  0  0  0
 17 60  1  0  0  0  0
 17 61  1  0  0  0  0
 18 19  1  0  0  0  0
 18 62  1  0  0  0  0
 18 63  1  0  0  0  0
 19 20  1  0  0  0  0
 19 64  1  0  0  0  0
 19 65  1  0  0  0  0
 20 66  1  0  0  0  0
 20 67  1  0  0  0  0
 21 68  1  0  0  0  0
 22 23  1  0  0  0  0
 22 69  1  0  0  0  0
 22 70  1  0  0  0  0
 23 24  1  0  0  0  0
 23 71  1  0  0  0  0
 23 72  1  0  0  0  0
 24 25  1  0  0  0  0
 24 26  1  0  0  0  0
 25 73  1  0  0  0  0
 25 74  1  0  0  0  0
 26 27  2  0  0  0  0
 26 28  1  0  0  0  0
 28 29  1  0  0  0  0
 28 75  1  0  0  0  0
 29 30  1  0  0  0  0
 29 34  1  0  0  0  0
 29 76  1  0  0  0  0
 30 31  1  0  0  0  0
 30 77  1  0  0  0  0
 30 78  1  0  0  0  0
 31 32  1  0  0  0  0
 31 79  1  0  0  0  0
 31 80  1  0  0  0  0
 32 33  1  0  0  0  0
 32 81  1  0  0  0  0
 32 82  1  0  0  0  0
 33 34  1  0  0  0  0
 33 83  1  0  0  0  0
 33 84  1  0  0  0  0
 34 85  1  0  0  0  0
 34 86  1  0  0  0  0
 35 36  1  0  0  0  0
 36 37  1  0  0  0  0
 36 87  1  0  0  0  0
 36 88  1  0  0  0  0
 37 38  1  0  0  0  0
 37 89  1  0  0  0  0
 37 90  1  0  0  0  0
 38 39  1  0  0  0  0
 38 43  1  0  0  0  0
 38 91  1  1  0  0  0
 39 40  1  0  0  0  0
 39 92  1  0  0  0  0
 39 93  1  0  0  0  0
 40 41  1  0  0  0  0
 40 94  1  0  0  0  0
 40 95  1  0  0  0  0
 41 42  1  0  0  0  0
 41 44  1  0  0  0  0
 41 96  1  1  0  0  0
 42 43  1  0  0  0  0
 42 97  1  0  0  0  0
 42 98  1  0  0  0  0
 43 99  1  0  0  0  0
 43100  1  0  0  0  0
 45 46  1  0  0  0  0
 45 47  1  0  0  0  0
 45 48  1  0  0  0  0
M  CHG  2  15   1  38   1
M  END
