CatS_224:1_D
 OpenBabel12041818463D

 90 94  0  0  1  0  0  0  0  0999 V2000
   49.0690   -2.6440   38.0391 C   0  0  0  0  0  0  0  0  0  0  0  0
   47.7681   -2.7700   38.7951 C   0  0  0  0  0  0  0  0  0  0  0  0
   46.7911   -3.3302   38.3196 O   0  0  0  0  0  0  0  0  0  0  0  0
   47.8436   -2.2025   40.0109 N   0  0  0  0  0  0  0  0  0  0  0  0
   46.7071   -2.2015   40.9519 C   0  0  2  0  0  0  0  0  0  0  0  0
   45.3531   -1.5242   40.6478 C   0  0  0  0  0  0  0  0  0  0  0  0
   44.3321   -1.8768   41.7560 C   0  0  0  0  0  0  0  0  0  0  0  0
   44.8215   -1.5326   43.1482 N   0  3  2  0  0  0  0  0  0  0  0  0
   46.2500   -1.9584   43.4061 C   0  0  0  0  0  0  0  0  0  0  0  0
   47.2241   -1.6008   42.2709 C   0  0  0  0  0  0  0  0  0  0  0  0
   43.9468   -2.0912   44.2429 C   0  0  0  0  0  0  0  0  0  0  0  0
   43.8952   -3.6142   44.4638 C   0  0  1  0  0  0  0  0  0  0  0  0
   42.5851   -4.0149   45.1893 C   0  0  0  0  0  0  0  0  0  0  0  0
   41.5609   -4.9325   44.6460 N   0  0  0  0  0  0  0  0  0  0  0  0
   41.3199   -6.2602   44.8450 C   0  0  0  0  0  0  0  0  0  0  0  0
   40.3880   -6.7644   44.0298 C   0  0  0  0  0  0  0  0  0  0  0  0
   40.0388   -5.6567   43.2210 C   0  0  0  0  0  0  0  0  0  0  0  0
   40.7399   -4.6123   43.6134 N   0  0  0  0  0  0  0  0  0  0  0  0
   39.1381   -5.6439   42.0800 C   0  0  0  0  0  0  0  0  0  0  0  0
   38.0162   -4.8369   42.0532 C   0  0  0  0  0  0  0  0  0  0  0  0
   37.1437   -4.8963   40.9927 C   0  0  0  0  0  0  0  0  0  0  0  0
   37.3414   -5.7639   39.9376 C   0  0  0  0  0  0  0  0  0  0  0  0
   38.4854   -6.5508   39.9536 C   0  0  0  0  0  0  0  0  0  0  0  0
   39.3737   -6.4823   41.0035 C   0  0  0  0  0  0  0  0  0  0  0  0
   38.8465   -7.7226   38.6370 S   0  0  0  0  0  0  0  0  0  0  0  0
   40.5902   -7.5129   38.1945 C   0  0  0  0  0  0  0  0  0  0  0  0
   41.2347   -8.8703   37.8297 C   0  0  0  0  0  0  0  0  0  0  0  0
   42.0780   -8.8254   36.5811 N   0  3  1  0  0  0  0  0  0  0  0  0
   43.1973   -7.8298   36.6477 C   0  0  0  0  0  0  0  0  0  0  0  0
   44.1493   -8.2661   35.5162 C   0  0  0  0  0  0  0  0  0  0  0  0
   43.7714   -9.7213   35.1620 C   0  0  1  0  0  0  0  0  0  0  0  0
   42.6890  -10.1339   36.1750 C   0  0  0  0  0  0  0  0  0  0  0  0
   43.2422   -9.7668   33.8741 F   0  0  0  0  0  0  0  0  0  0  0  0
   36.2589   -5.7818   38.8548 C   0  0  0  0  0  0  0  0  0  0  0  0
   35.1854   -4.9683   39.1975 F   0  0  0  0  0  0  0  0  0  0  0  0
   35.7401   -7.0519   38.6134 F   0  0  0  0  0  0  0  0  0  0  0  0
   36.7538   -5.3298   37.6349 F   0  0  0  0  0  0  0  0  0  0  0  0
   39.9769   -8.2427   44.0317 C   0  0  0  0  0  0  0  0  0  0  0  0
   40.5483   -9.0551   45.1390 N   0  0  0  0  0  0  0  0  0  0  0  0
   41.9453   -8.6426   45.3734 C   0  0  0  0  0  0  0  0  0  0  0  0
   42.0202   -7.1746   45.8319 C   0  0  0  0  0  0  0  0  0  0  0  0
   39.7318   -9.3600   46.5276 S   0  0  0  0  0  0  0  0  0  0  0  0
   40.3432  -10.5008   47.1393 O   0  0  0  0  0  0  0  0  0  0  0  0
   38.3562   -9.6118   46.2215 O   0  0  0  0  0  0  0  0  0  0  0  0
   39.8252   -7.9649   47.6839 C   0  0  0  0  0  0  0  0  0  0  0  0
   43.9955   -4.3034   43.2097 O   0  0  0  0  0  0  0  0  0  0  0  0
   44.6707   -3.8757   45.0384 H   0  0  0  0  0  0  0  0  0  0  0  0
   44.5653  -10.3284   35.1968 H   0  0  0  0  0  0  0  0  0  0  0  0
   49.7304   -2.1559   38.6083 H   0  0  0  0  0  0  0  0  0  0  0  0
   49.4209   -3.5538   37.8186 H   0  0  0  0  0  0  0  0  0  0  0  0
   48.9170   -2.1391   37.1894 H   0  0  0  0  0  0  0  0  0  0  0  0
   48.6008   -1.8271   40.2624 H   0  0  0  0  0  0  0  0  0  0  0  0
   46.4403   -3.1649   40.9257 H   0  0  0  0  0  0  0  0  0  0  0  0
   45.0113   -1.8434   39.7638 H   0  0  0  0  0  0  0  0  0  0  0  0
   45.4786   -0.5326   40.6185 H   0  0  0  0  0  0  0  0  0  0  0  0
   44.1433   -2.8580   41.7160 H   0  0  0  0  0  0  0  0  0  0  0  0
   43.5105   -1.3322   41.5875 H   0  0  0  0  0  0  0  0  0  0  0  0
   44.8037   -0.6242   43.2202 H   0  0  0  0  0  0  0  0  0  0  0  0
   46.2654   -2.9498   43.5364 H   0  0  0  0  0  0  0  0  0  0  0  0
   46.5580   -1.4610   44.2171 H   0  0  0  0  0  0  0  0  0  0  0  0
   47.2901   -0.6068   42.1842 H   0  0  0  0  0  0  0  0  0  0  0  0
   48.1292   -1.9727   42.4771 H   0  0  0  0  0  0  0  0  0  0  0  0
   43.0121   -1.7898   44.0534 H   0  0  0  0  0  0  0  0  0  0  0  0
   44.3683   -1.7462   45.0815 H   0  0  0  0  0  0  0  0  0  0  0  0
   42.1068   -3.1559   45.3717 H   0  0  0  0  0  0  0  0  0  0  0  0
   42.9543   -4.5776   45.9290 H   0  0  0  0  0  0  0  0  0  0  0  0
   37.8386   -4.2068   42.8091 H   0  0  0  0  0  0  0  0  0  0  0  0
   36.3447   -4.2951   40.9854 H   0  0  0  0  0  0  0  0  0  0  0  0
   40.2000   -7.0454   40.9883 H   0  0  0  0  0  0  0  0  0  0  0  0
   41.0801   -7.1127   38.9689 H   0  0  0  0  0  0  0  0  0  0  0  0
   40.6471   -6.9098   37.3989 H   0  0  0  0  0  0  0  0  0  0  0  0
   40.5057   -9.5419   37.6971 H   0  0  0  0  0  0  0  0  0  0  0  0
   41.8443   -9.1158   38.5834 H   0  0  0  0  0  0  0  0  0  0  0  0
   41.5390   -8.5539   35.8972 H   0  0  0  0  0  0  0  0  0  0  0  0
   43.6555   -7.8660   37.5358 H   0  0  0  0  0  0  0  0  0  0  0  0
   42.8814   -6.8869   36.5424 H   0  0  0  0  0  0  0  0  0  0  0  0
   45.0995   -8.2184   35.8245 H   0  0  0  0  0  0  0  0  0  0  0  0
   44.0630   -7.6672   34.7202 H   0  0  0  0  0  0  0  0  0  0  0  0
   42.0088  -10.7327   35.7523 H   0  0  0  0  0  0  0  0  0  0  0  0
   43.0557  -10.6508   36.9486 H   0  0  0  0  0  0  0  0  0  0  0  0
   40.2680   -8.6476   43.1649 H   0  0  0  0  0  0  0  0  0  0  0  0
   38.9855   -8.2556   44.1616 H   0  0  0  0  0  0  0  0  0  0  0  0
   42.4656   -8.7497   44.5262 H   0  0  0  0  0  0  0  0  0  0  0  0
   42.3299   -9.2192   46.0942 H   0  0  0  0  0  0  0  0  0  0  0  0
   41.5843   -7.0865   46.7276 H   0  0  0  0  0  0  0  0  0  0  0  0
   42.9825   -6.9077   45.8856 H   0  0  0  0  0  0  0  0  0  0  0  0
   38.8991   -7.6438   47.8822 H   0  0  0  0  0  0  0  0  0  0  0  0
   40.2688   -8.2574   48.5311 H   0  0  0  0  0  0  0  0  0  0  0  0
   40.3593   -7.2245   47.2757 H   0  0  0  0  0  0  0  0  0  0  0  0
   44.8872   -4.1408   42.7730 H   0  0  0  0  0  0  0  0  0  0  0  0
  1  2  1  0  0  0  0
  1 49  1  0  0  0  0
  1 50  1  0  0  0  0
  1 51  1  0  0  0  0
  2  3  2  0  0  0  0
  2  4  1  0  0  0  0
  4  5  1  0  0  0  0
  4 52  1  0  0  0  0
  5  6  1  0  0  0  0
  5 10  1  0  0  0  0
  5 53  1  1  0  0  0
  6  7  1  0  0  0  0
  6 54  1  0  0  0  0
  6 55  1  0  0  0  0
  7  8  1  0  0  0  0
  7 56  1  0  0  0  0
  7 57  1  0  0  0  0
  8  9  1  0  0  0  0
  8 11  1  0  0  0  0
  8 58  1  1  0  0  0
  9 10  1  0  0  0  0
  9 59  1  0  0  0  0
  9 60  1  0  0  0  0
 10 61  1  0  0  0  0
 10 62  1  0  0  0  0
 11 12  1  0  0  0  0
 11 63  1  0  0  0  0
 11 64  1  0  0  0  0
 12 13  1  0  0  0  0
 12 46  1  0  0  0  0
 12 47  1  1  0  0  0
 13 14  1  0  0  0  0
 13 65  1  0  0  0  0
 13 66  1  0  0  0  0
 14 15  1  0  0  0  0
 14 18  1  0  0  0  0
 15 16  2  0  0  0  0
 15 41  1  0  0  0  0
 16 17  1  0  0  0  0
 16 38  1  0  0  0  0
 17 18  2  0  0  0  0
 17 19  1  0  0  0  0
 19 20  2  0  0  0  0
 19 24  1  0  0  0  0
 20 21  1  0  0  0  0
 20 67  1  0  0  0  0
 21 22  2  0  0  0  0
 21 68  1  0  0  0  0
 22 23  1  0  0  0  0
 22 34  1  0  0  0  0
 23 24  2  0  0  0  0
 23 25  1  0  0  0  0
 24 69  1  0  0  0  0
 25 26  1  0  0  0  0
 26 27  1  0  0  0  0
 26 70  1  0  0  0  0
 26 71  1  0  0  0  0
 27 28  1  0  0  0  0
 27 72  1  0  0  0  0
 27 73  1  0  0  0  0
 28 29  1  0  0  0  0
 28 32  1  0  0  0  0
 28 74  1  6  0  0  0
 29 30  1  0  0  0  0
 29 75  1  0  0  0  0
 29 76  1  0  0  0  0
 30 31  1  0  0  0  0
 30 77  1  0  0  0  0
 30 78  1  0  0  0  0
 31 32  1  0  0  0  0
 31 33  1  0  0  0  0
 31 48  1  1  0  0  0
 32 79  1  0  0  0  0
 32 80  1  0  0  0  0
 34 35  1  0  0  0  0
 34 36  1  0  0  0  0
 34 37  1  0  0  0  0
 38 39  1  0  0  0  0
 38 81  1  0  0  0  0
 38 82  1  0  0  0  0
 39 40  1  0  0  0  0
 39 42  1  0  0  0  0
 40 41  1  0  0  0  0
 40 83  1  0  0  0  0
 40 84  1  0  0  0  0
 41 85  1  0  0  0  0
 41 86  1  0  0  0  0
 42 43  2  0  0  0  0
 42 44  2  0  0  0  0
 42 45  1  0  0  0  0
 45 87  1  0  0  0  0
 45 88  1  0  0  0  0
 45 89  1  0  0  0  0
 46 90  1  0  0  0  0
M  CHG  2   8   1  28   1
M  END
