CatS_42:1_D
 OpenBabel12041818463D

 91 96  0  0  0  0  0  0  0  0999 V2000
   42.4878   -9.5783   46.9920 C   0  0  0  0  0  0  0  0  0  0  0  0
   40.8655   -8.8524   47.3464 S   0  0  0  0  0  0  0  0  0  0  0  0
   39.9034   -9.9072   47.3654 O   0  0  0  0  0  0  0  0  0  0  0  0
   41.0127   -8.0309   48.5045 O   0  0  0  0  0  0  0  0  0  0  0  0
   40.4883   -7.8723   46.0979 N   0  0  0  0  0  0  0  0  0  0  0  0
   40.1606   -8.5106   44.8045 C   0  0  0  0  0  0  0  0  0  0  0  0
   39.3562   -7.5258   43.9259 C   0  0  0  0  0  0  0  0  0  0  0  0
   40.1166   -6.2199   43.7520 C   0  0  0  0  0  0  0  0  0  0  0  0
   41.0556   -5.8818   44.6405 C   0  0  0  0  0  0  0  0  0  0  0  0
   41.5628   -4.6607   44.1467 C   0  0  0  0  0  0  0  0  0  0  0  0
   40.8922   -4.3523   43.0576 N   0  0  0  0  0  0  0  0  0  0  0  0
   39.9667   -5.2972   42.7583 N   0  0  0  0  0  0  0  0  0  0  0  0
   39.0159   -5.1690   41.6362 C   0  0  0  0  0  0  0  0  0  0  0  0
   37.8448   -4.1619   41.6392 C   0  0  0  0  0  0  0  0  0  0  0  0
   36.5356   -4.8588   41.2029 C   0  0  0  0  0  0  0  0  0  0  0  0
   36.6838   -5.6849   39.9491 N   0  3  0  0  0  0  0  0  0  0  0  0
   35.7287   -5.2667   38.8591 C   0  0  0  0  0  0  0  0  0  0  0  0
   35.9359   -6.1465   37.6102 C   0  0  0  0  0  0  0  0  0  0  0  0
   35.8245   -7.5429   37.9485 O   0  0  0  0  0  0  0  0  0  0  0  0
   36.8070   -7.9516   38.9184 C   0  0  0  0  0  0  0  0  0  0  0  0
   36.6252   -7.1651   40.2304 C   0  0  0  0  0  0  0  0  0  0  0  0
   42.6407   -3.8330   44.6653 C   0  0  0  0  0  0  0  0  0  0  0  0
   43.9531   -4.0281   44.2485 C   0  0  0  0  0  0  0  0  0  0  0  0
   44.9698   -3.2224   44.7150 C   0  0  0  0  0  0  0  0  0  0  0  0
   44.6972   -2.2084   45.5988 C   0  0  0  0  0  0  0  0  0  0  0  0
   43.3886   -1.9987   46.0271 C   0  0  0  0  0  0  0  0  0  0  0  0
   42.3667   -2.8193   45.5616 C   0  0  0  0  0  0  0  0  0  0  0  0
   43.1413   -0.9078   46.9342 C   0  0  0  0  0  0  0  0  0  0  0  0
   42.8708   -0.0226   47.7284 C   0  0  0  0  0  0  0  0  0  0  0  0
   42.4831    0.9758   48.6904 C   0  0  0  0  0  0  0  0  0  0  0  0
   42.9692    2.2670   48.5261 C   0  0  0  0  0  0  0  0  0  0  0  0
   42.6574    3.2392   49.4387 C   0  0  0  0  0  0  0  0  0  0  0  0
   41.8771    2.9436   50.5396 C   0  0  0  0  0  0  0  0  0  0  0  0
   41.3780    1.6641   50.6930 C   0  0  0  0  0  0  0  0  0  0  0  0
   41.6676    0.6828   49.7778 C   0  0  0  0  0  0  0  0  0  0  0  0
   41.5453    3.9973   51.5913 C   0  0  0  0  0  0  0  0  0  0  0  0
   40.3329    4.8637   51.3229 N   0  3  0  0  0  0  0  0  0  0  0  0
   39.8617    5.7825   52.4264 C   0  0  0  0  0  0  0  0  0  0  0  0
   39.4614    4.9199   53.6469 C   0  0  0  0  0  0  0  0  0  0  0  0
   38.9441    5.7944   54.8069 C   0  0  0  0  0  0  0  0  0  0  0  0
   37.7248    6.6149   54.3464 C   0  0  0  0  0  0  0  0  0  0  0  0
   38.1283    7.5087   53.1591 C   0  0  0  0  0  0  0  0  0  0  0  0
   38.6494    6.6421   51.9955 C   0  0  0  0  0  0  0  0  0  0  0  0
   45.9899   -1.1962   46.1802 Cl  0  0  0  0  0  0  0  0  0  0  0  0
   41.4047   -6.7317   45.8572 C   0  0  0  0  0  0  0  0  0  0  0  0
   42.8145   -9.2319   46.1126 H   0  0  0  0  0  0  0  0  0  0  0  0
   43.1343   -9.3292   47.7132 H   0  0  0  0  0  0  0  0  0  0  0  0
   42.4100  -10.5746   46.9547 H   0  0  0  0  0  0  0  0  0  0  0  0
   39.6178   -9.3346   44.9669 H   0  0  0  0  0  0  0  0  0  0  0  0
   41.0075   -8.7568   44.3331 H   0  0  0  0  0  0  0  0  0  0  0  0
   38.4746   -7.3405   44.3599 H   0  0  0  0  0  0  0  0  0  0  0  0
   39.2155   -7.9380   43.0257 H   0  0  0  0  0  0  0  0  0  0  0  0
   38.6052   -6.0728   41.5166 H   0  0  0  0  0  0  0  0  0  0  0  0
   39.6018   -4.7910   40.9193 H   0  0  0  0  0  0  0  0  0  0  0  0
   38.0495   -3.4140   41.0078 H   0  0  0  0  0  0  0  0  0  0  0  0
   37.7274   -3.8030   42.5652 H   0  0  0  0  0  0  0  0  0  0  0  0
   35.8402   -4.1582   41.0432 H   0  0  0  0  0  0  0  0  0  0  0  0
   36.2765   -5.4854   41.9380 H   0  0  0  0  0  0  0  0  0  0  0  0
   37.5242   -5.5347   39.6301 H   0  0  0  0  0  0  0  0  0  0  0  0
   35.8920   -4.3087   38.6232 H   0  0  0  0  0  0  0  0  0  0  0  0
   34.7899   -5.3776   39.1852 H   0  0  0  0  0  0  0  0  0  0  0  0
   36.8432   -5.9696   37.2287 H   0  0  0  0  0  0  0  0  0  0  0  0
   35.2306   -5.9220   36.9376 H   0  0  0  0  0  0  0  0  0  0  0  0
   37.7227   -7.7820   38.5537 H   0  0  0  0  0  0  0  0  0  0  0  0
   36.6908   -8.9267   39.1070 H   0  0  0  0  0  0  0  0  0  0  0  0
   35.7405   -7.3927   40.6372 H   0  0  0  0  0  0  0  0  0  0  0  0
   37.3574   -7.4102   40.8658 H   0  0  0  0  0  0  0  0  0  0  0  0
   44.1618   -4.7621   43.6022 H   0  0  0  0  0  0  0  0  0  0  0  0
   45.9090   -3.3772   44.4084 H   0  0  0  0  0  0  0  0  0  0  0  0
   41.4290   -2.6743   45.8774 H   0  0  0  0  0  0  0  0  0  0  0  0
   43.5476    2.4866   47.7404 H   0  0  0  0  0  0  0  0  0  0  0  0
   42.9973    4.1704   49.3072 H   0  0  0  0  0  0  0  0  0  0  0  0
   40.7992    1.4505   51.4801 H   0  0  0  0  0  0  0  0  0  0  0  0
   41.2941   -0.2377   49.8926 H   0  0  0  0  0  0  0  0  0  0  0  0
   42.3384    4.6000   51.6798 H   0  0  0  0  0  0  0  0  0  0  0  0
   41.3221    3.4826   52.4191 H   0  0  0  0  0  0  0  0  0  0  0  0
   39.6464    4.2978   51.1283 H   0  0  0  0  0  0  0  0  0  0  0  0
   40.4356    5.3355   50.5521 H   0  0  0  0  0  0  0  0  0  0  0  0
   40.6095    6.4070   52.6515 H   0  0  0  0  0  0  0  0  0  0  0  0
   40.2587    4.4019   53.9568 H   0  0  0  0  0  0  0  0  0  0  0  0
   38.7267    4.3014   53.3682 H   0  0  0  0  0  0  0  0  0  0  0  0
   39.6699    6.4143   55.1053 H   0  0  0  0  0  0  0  0  0  0  0  0
   38.6721    5.2036   55.5666 H   0  0  0  0  0  0  0  0  0  0  0  0
   37.4000    7.1849   55.1010 H   0  0  0  0  0  0  0  0  0  0  0  0
   36.9933    5.9950   54.0625 H   0  0  0  0  0  0  0  0  0  0  0  0
   38.8451    8.1427   53.4495 H   0  0  0  0  0  0  0  0  0  0  0  0
   37.3277    8.0222   52.8499 H   0  0  0  0  0  0  0  0  0  0  0  0
   37.9160    6.0384   51.6830 H   0  0  0  0  0  0  0  0  0  0  0  0
   38.9435    7.2518   51.2595 H   0  0  0  0  0  0  0  0  0  0  0  0
   42.3288   -7.0932   45.7332 H   0  0  0  0  0  0  0  0  0  0  0  0
   41.3239   -6.1312   46.6527 H   0  0  0  0  0  0  0  0  0  0  0  0
  1  2  1  0  0  0  0
  1 46  1  0  0  0  0
  1 47  1  0  0  0  0
  1 48  1  0  0  0  0
  2  3  2  0  0  0  0
  2  4  2  0  0  0  0
  2  5  1  0  0  0  0
  5  6  1  0  0  0  0
  5 45  1  0  0  0  0
  6  7  1  0  0  0  0
  6 49  1  0  0  0  0
  6 50  1  0  0  0  0
  7  8  1  0  0  0  0
  7 51  1  0  0  0  0
  7 52  1  0  0  0  0
  8  9  2  0  0  0  0
  8 12  1  0  0  0  0
  9 10  1  0  0  0  0
  9 45  1  0  0  0  0
 10 11  2  0  0  0  0
 10 22  1  0  0  0  0
 11 12  1  0  0  0  0
 12 13  1  0  0  0  0
 13 14  1  0  0  0  0
 13 53  1  0  0  0  0
 13 54  1  0  0  0  0
 14 15  1  0  0  0  0
 14 55  1  0  0  0  0
 14 56  1  0  0  0  0
 15 16  1  0  0  0  0
 15 57  1  0  0  0  0
 15 58  1  0  0  0  0
 16 17  1  0  0  0  0
 16 21  1  0  0  0  0
 16 59  1  0  0  0  0
 17 18  1  0  0  0  0
 17 60  1  0  0  0  0
 17 61  1  0  0  0  0
 18 19  1  0  0  0  0
 18 62  1  0  0  0  0
 18 63  1  0  0  0  0
 19 20  1  0  0  0  0
 20 21  1  0  0  0  0
 20 64  1  0  0  0  0
 20 65  1  0  0  0  0
 21 66  1  0  0  0  0
 21 67  1  0  0  0  0
 22 23  2  0  0  0  0
 22 27  1  0  0  0  0
 23 24  1  0  0  0  0
 23 68  1  0  0  0  0
 24 25  2  0  0  0  0
 24 69  1  0  0  0  0
 25 26  1  0  0  0  0
 25 44  1  0  0  0  0
 26 27  2  0  0  0  0
 26 28  1  0  0  0  0
 27 70  1  0  0  0  0
 28 29  3  0  0  0  0
 29 30  1  0  0  0  0
 30 31  2  0  0  0  0
 30 35  1  0  0  0  0
 31 32  1  0  0  0  0
 31 71  1  0  0  0  0
 32 33  2  0  0  0  0
 32 72  1  0  0  0  0
 33 34  1  0  0  0  0
 33 36  1  0  0  0  0
 34 35  2  0  0  0  0
 34 73  1  0  0  0  0
 35 74  1  0  0  0  0
 36 37  1  0  0  0  0
 36 75  1  0  0  0  0
 36 76  1  0  0  0  0
 37 38  1  0  0  0  0
 37 77  1  0  0  0  0
 37 78  1  0  0  0  0
 38 39  1  0  0  0  0
 38 43  1  0  0  0  0
 38 79  1  0  0  0  0
 39 40  1  0  0  0  0
 39 80  1  0  0  0  0
 39 81  1  0  0  0  0
 40 41  1  0  0  0  0
 40 82  1  0  0  0  0
 40 83  1  0  0  0  0
 41 42  1  0  0  0  0
 41 84  1  0  0  0  0
 41 85  1  0  0  0  0
 42 43  1  0  0  0  0
 42 86  1  0  0  0  0
 42 87  1  0  0  0  0
 43 88  1  0  0  0  0
 43 89  1  0  0  0  0
 45 90  1  0  0  0  0
 45 91  1  0  0  0  0
M  CHG  2  16   1  37   1
M  END
