CatS_131:1_D
 OpenBabel12041818463D

 91 96  0  0  1  0  0  0  0  0999 V2000
   36.1775   -5.2639   37.7257 C   0  0  0  0  0  0  0  0  0  0  0  0
   36.9530   -5.1971   38.9376 C   0  0  0  0  0  0  0  0  0  0  0  0
   37.1632   -6.3993   39.4536 C   0  0  0  0  0  0  0  0  0  0  0  0
   36.4396   -7.7303   38.5202 S   0  0  0  0  0  0  0  0  0  0  0  0
   35.8383   -6.4911   37.3803 C   0  0  0  0  0  0  0  0  0  0  0  0
   37.8790   -6.6910   40.6188 N   0  0  0  0  0  0  0  0  0  0  0  0
   38.5153   -5.8085   41.4278 C   0  0  0  0  0  0  0  0  0  0  0  0
   38.5104   -4.6026   41.1650 O   0  0  0  0  0  0  0  0  0  0  0  0
   39.1797   -6.2724   42.5178 N   0  0  0  0  0  0  0  0  0  0  0  0
   39.0783   -7.6861   42.9565 C   0  0  0  0  0  0  0  0  0  0  0  0
   39.6067   -8.0313   44.3704 C   0  0  0  0  0  0  0  0  0  0  0  0
   40.7786   -7.1664   44.8025 C   0  0  0  0  0  0  0  0  0  0  0  0
   40.9578   -5.9474   44.2861 C   0  0  0  0  0  0  0  0  0  0  0  0
   42.1137   -5.4700   44.9441 C   0  0  0  0  0  0  0  0  0  0  0  0
   42.5305   -6.4062   45.7656 N   0  0  0  0  0  0  0  0  0  0  0  0
   41.7263   -7.4929   45.7266 N   0  0  0  0  0  0  0  0  0  0  0  0
   41.9395   -8.6824   46.5715 C   0  0  0  0  0  0  0  0  0  0  0  0
   41.8529  -10.1288   46.0444 C   0  0  2  0  0  0  0  0  0  0  0  0
   40.4003  -10.6322   46.1842 C   0  0  0  0  0  0  0  0  0  0  0  0
   39.9799  -11.6096   45.1156 N   0  3  0  0  0  0  0  0  0  0  0  0
   38.5202  -11.4998   44.7422 C   0  0  0  0  0  0  0  0  0  0  0  0
   38.1594  -12.4817   43.6084 C   0  0  0  0  0  0  0  0  0  0  0  0
   38.5246  -13.9207   44.0187 C   0  0  0  0  0  0  0  0  0  0  0  0
   40.0284  -14.0044   44.3405 C   0  0  0  0  0  0  0  0  0  0  0  0
   40.3748  -13.0207   45.4765 C   0  0  0  0  0  0  0  0  0  0  0  0
   42.7401  -10.9786   46.7866 O   0  0  0  0  0  0  0  0  0  0  0  0
   42.7970   -4.1946   44.8026 C   0  0  0  0  0  0  0  0  0  0  0  0
   43.5177   -3.8651   43.6673 C   0  0  0  0  0  0  0  0  0  0  0  0
   44.1616   -2.6539   43.5717 C   0  0  0  0  0  0  0  0  0  0  0  0
   44.1111   -1.7273   44.5929 C   0  0  0  0  0  0  0  0  0  0  0  0
   43.3691   -2.0521   45.7207 C   0  0  0  0  0  0  0  0  0  0  0  0
   42.7260   -3.2642   45.8217 C   0  0  0  0  0  0  0  0  0  0  0  0
   43.2005   -0.9250   47.1110 S   0  0  0  0  0  0  0  0  0  0  0  0
   41.9501    0.2905   46.6117 C   0  0  0  0  0  0  0  0  0  0  0  0
   40.5804    0.0549   47.2835 C   0  0  0  0  0  0  0  0  0  0  0  0
   40.5709    0.1444   48.7897 N   0  3  2  0  0  0  0  0  0  0  0  0
   41.5327    1.1730   49.3384 C   0  0  0  0  0  0  0  0  0  0  0  0
   41.4456    1.2544   50.8759 C   0  0  0  0  0  0  0  0  0  0  0  0
   41.7007   -0.1297   51.4997 C   0  0  1  0  0  0  0  0  0  0  0  0
   40.6735   -1.1409   50.9569 C   0  0  0  0  0  0  0  0  0  0  0  0
   40.7590   -1.2146   49.4190 C   0  0  0  0  0  0  0  0  0  0  0  0
   42.9845   -0.5520   51.1742 F   0  0  0  0  0  0  0  0  0  0  0  0
   44.8789   -0.4266   44.3574 C   0  0  0  0  0  0  0  0  0  0  0  0
   45.9380   -0.3131   45.2495 F   0  0  0  0  0  0  0  0  0  0  0  0
   44.0897    0.7083   44.5229 F   0  0  0  0  0  0  0  0  0  0  0  0
   45.4041   -0.3493   43.0723 F   0  0  0  0  0  0  0  0  0  0  0  0
   40.0571   -5.3202   43.2330 C   0  0  0  0  0  0  0  0  0  0  0  0
   42.1233  -10.1490   45.0819 H   0  0  0  0  0  0  0  0  0  0  0  0
   35.9203   -4.4558   37.1958 H   0  0  0  0  0  0  0  0  0  0  0  0
   37.2916   -4.3469   39.3406 H   0  0  0  0  0  0  0  0  0  0  0  0
   35.3003   -6.7060   36.5652 H   0  0  0  0  0  0  0  0  0  0  0  0
   37.9250   -7.5399   40.8300 H   0  0  0  0  0  0  0  0  0  0  0  0
   39.5864   -8.2429   42.2993 H   0  0  0  0  0  0  0  0  0  0  0  0
   38.0966   -7.8713   42.9990 H   0  0  0  0  0  0  0  0  0  0  0  0
   39.8960   -8.9885   44.3776 H   0  0  0  0  0  0  0  0  0  0  0  0
   38.8611   -7.8603   45.0146 H   0  0  0  0  0  0  0  0  0  0  0  0
   41.2684   -8.6179   47.3100 H   0  0  0  0  0  0  0  0  0  0  0  0
   42.9170   -8.6074   46.7691 H   0  0  0  0  0  0  0  0  0  0  0  0
   39.7883   -9.8422   46.1485 H   0  0  0  0  0  0  0  0  0  0  0  0
   40.3479  -11.1205   47.0554 H   0  0  0  0  0  0  0  0  0  0  0  0
   40.4584  -11.3991   44.3685 H   0  0  0  0  0  0  0  0  0  0  0  0
   38.3282  -10.5656   44.4415 H   0  0  0  0  0  0  0  0  0  0  0  0
   37.9698  -11.7289   45.5452 H   0  0  0  0  0  0  0  0  0  0  0  0
   38.6626  -12.2331   42.7808 H   0  0  0  0  0  0  0  0  0  0  0  0
   37.1761  -12.4321   43.4332 H   0  0  0  0  0  0  0  0  0  0  0  0
   38.3073  -14.5466   43.2697 H   0  0  0  0  0  0  0  0  0  0  0  0
   37.9994  -14.1764   44.8303 H   0  0  0  0  0  0  0  0  0  0  0  0
   40.5576  -13.7727   43.5242 H   0  0  0  0  0  0  0  0  0  0  0  0
   40.2526  -14.9347   44.6310 H   0  0  0  0  0  0  0  0  0  0  0  0
   39.8901  -13.2942   46.3073 H   0  0  0  0  0  0  0  0  0  0  0  0
   41.3635  -13.0449   45.6241 H   0  0  0  0  0  0  0  0  0  0  0  0
   42.8401  -11.8785   46.3486 H   0  0  0  0  0  0  0  0  0  0  0  0
   43.5704   -4.5147   42.9089 H   0  0  0  0  0  0  0  0  0  0  0  0
   44.6784   -2.4396   42.7428 H   0  0  0  0  0  0  0  0  0  0  0  0
   42.1991   -3.4750   46.6451 H   0  0  0  0  0  0  0  0  0  0  0  0
   41.8342    0.2417   45.6196 H   0  0  0  0  0  0  0  0  0  0  0  0
   42.2745    1.1906   46.9025 H   0  0  0  0  0  0  0  0  0  0  0  0
   40.2618   -0.8571   47.0248 H   0  0  0  0  0  0  0  0  0  0  0  0
   39.9872    0.7931   46.9625 H   0  0  0  0  0  0  0  0  0  0  0  0
   39.7339    0.4200   49.0218 H   0  0  0  0  0  0  0  0  0  0  0  0
   41.3129    2.0675   48.9490 H   0  0  0  0  0  0  0  0  0  0  0  0
   42.4622    0.9013   49.0893 H   0  0  0  0  0  0  0  0  0  0  0  0
   40.5360    1.5754   51.1397 H   0  0  0  0  0  0  0  0  0  0  0  0
   42.1407    1.8923   51.2075 H   0  0  0  0  0  0  0  0  0  0  0  0
   41.6095   -0.0683   52.4937 H   0  0  0  0  0  0  0  0  0  0  0  0
   39.7535   -0.8558   51.2258 H   0  0  0  0  0  0  0  0  0  0  0  0
   40.8733   -2.0441   51.3369 H   0  0  0  0  0  0  0  0  0  0  0  0
   41.6547   -1.5744   49.1575 H   0  0  0  0  0  0  0  0  0  0  0  0
   40.0286   -1.8152   49.0935 H   0  0  0  0  0  0  0  0  0  0  0  0
   39.4784   -4.6389   43.6813 H   0  0  0  0  0  0  0  0  0  0  0  0
   40.6653   -4.9269   42.5435 H   0  0  0  0  0  0  0  0  0  0  0  0
  1  2  1  0  0  0  0
  1  5  2  0  0  0  0
  1 49  1  0  0  0  0
  2  3  2  0  0  0  0
  2 50  1  0  0  0  0
  3  4  1  0  0  0  0
  3  6  1  0  0  0  0
  4  5  1  0  0  0  0
  5 51  1  0  0  0  0
  6  7  1  0  0  0  0
  6 52  1  0  0  0  0
  7  8  2  0  0  0  0
  7  9  1  0  0  0  0
  9 10  1  0  0  0  0
  9 47  1  0  0  0  0
 10 11  1  0  0  0  0
 10 53  1  0  0  0  0
 10 54  1  0  0  0  0
 11 12  1  0  0  0  0
 11 55  1  0  0  0  0
 11 56  1  0  0  0  0
 12 13  2  0  0  0  0
 12 16  1  0  0  0  0
 13 14  1  0  0  0  0
 13 47  1  0  0  0  0
 14 15  2  0  0  0  0
 14 27  1  0  0  0  0
 15 16  1  0  0  0  0
 16 17  1  0  0  0  0
 17 18  1  0  0  0  0
 17 57  1  0  0  0  0
 17 58  1  0  0  0  0
 18 19  1  0  0  0  0
 18 26  1  0  0  0  0
 18 48  1  6  0  0  0
 19 20  1  0  0  0  0
 19 59  1  0  0  0  0
 19 60  1  0  0  0  0
 20 21  1  0  0  0  0
 20 25  1  0  0  0  0
 20 61  1  0  0  0  0
 21 22  1  0  0  0  0
 21 62  1  0  0  0  0
 21 63  1  0  0  0  0
 22 23  1  0  0  0  0
 22 64  1  0  0  0  0
 22 65  1  0  0  0  0
 23 24  1  0  0  0  0
 23 66  1  0  0  0  0
 23 67  1  0  0  0  0
 24 25  1  0  0  0  0
 24 68  1  0  0  0  0
 24 69  1  0  0  0  0
 25 70  1  0  0  0  0
 25 71  1  0  0  0  0
 26 72  1  0  0  0  0
 27 28  2  0  0  0  0
 27 32  1  0  0  0  0
 28 29  1  0  0  0  0
 28 73  1  0  0  0  0
 29 30  2  0  0  0  0
 29 74  1  0  0  0  0
 30 31  1  0  0  0  0
 30 43  1  0  0  0  0
 31 32  2  0  0  0  0
 31 33  1  0  0  0  0
 32 75  1  0  0  0  0
 33 34  1  0  0  0  0
 34 35  1  0  0  0  0
 34 76  1  0  0  0  0
 34 77  1  0  0  0  0
 35 36  1  0  0  0  0
 35 78  1  0  0  0  0
 35 79  1  0  0  0  0
 36 37  1  0  0  0  0
 36 41  1  0  0  0  0
 36 80  1  1  0  0  0
 37 38  1  0  0  0  0
 37 81  1  0  0  0  0
 37 82  1  0  0  0  0
 38 39  1  0  0  0  0
 38 83  1  0  0  0  0
 38 84  1  0  0  0  0
 39 40  1  0  0  0  0
 39 42  1  0  0  0  0
 39 85  1  1  0  0  0
 40 41  1  0  0  0  0
 40 86  1  0  0  0  0
 40 87  1  0  0  0  0
 41 88  1  0  0  0  0
 41 89  1  0  0  0  0
 43 44  1  0  0  0  0
 43 45  1  0  0  0  0
 43 46  1  0  0  0  0
 47 90  1  0  0  0  0
 47 91  1  0  0  0  0
M  CHG  2  20   1  36   1
M  END
