CatS_362:1_D
 OpenBabel12041818463D

 86 91  0  0  1  0  0  0  0  0999 V2000
   41.9506   -7.8444   49.1048 C   0  0  0  0  0  0  0  0  0  0  0  0
   42.6504   -8.6172   47.6216 S   0  0  0  0  0  0  0  0  0  0  0  0
   42.2707   -9.9929   47.6000 O   0  0  0  0  0  0  0  0  0  0  0  0
   44.0446   -8.3099   47.5791 O   0  0  0  0  0  0  0  0  0  0  0  0
   41.9741   -7.9142   46.3195 N   0  0  0  0  0  0  0  0  0  0  0  0
   40.5344   -8.2207   46.1853 C   0  0  0  0  0  0  0  0  0  0  0  0
   40.0139   -7.9468   44.7572 C   0  0  0  0  0  0  0  0  0  0  0  0
   40.4794   -6.5879   44.2690 C   0  0  0  0  0  0  0  0  0  0  0  0
   41.4609   -5.9109   44.8699 C   0  0  0  0  0  0  0  0  0  0  0  0
   41.5464   -4.7167   44.1128 C   0  0  0  0  0  0  0  0  0  0  0  0
   40.6442   -4.7655   43.1537 N   0  0  0  0  0  0  0  0  0  0  0  0
   39.9579   -5.9277   43.2063 N   0  0  0  0  0  0  0  0  0  0  0  0
   38.8556   -6.2928   42.3081 C   0  0  0  0  0  0  0  0  0  0  0  0
   39.3242   -6.2321   40.8439 C   0  0  0  0  0  0  0  0  0  0  0  0
   38.4329   -5.3329   39.9628 C   0  0  0  0  0  0  0  0  0  0  0  0
   37.6898   -6.0677   38.8732 N   0  3  0  0  0  0  0  0  0  0  0  0
   36.5310   -5.2670   38.3330 C   0  0  0  0  0  0  0  0  0  0  0  0
   35.3565   -5.2973   39.3304 C   0  0  0  0  0  0  0  0  0  0  0  0
   34.9922   -6.6554   39.6417 O   0  0  0  0  0  0  0  0  0  0  0  0
   36.0755   -7.3878   40.2455 C   0  0  0  0  0  0  0  0  0  0  0  0
   37.2778   -7.4590   39.2839 C   0  0  0  0  0  0  0  0  0  0  0  0
   42.4487   -3.5879   44.2672 C   0  0  0  0  0  0  0  0  0  0  0  0
   42.0733   -2.5629   45.1244 C   0  0  0  0  0  0  0  0  0  0  0  0
   42.9076   -1.4898   45.3349 C   0  0  0  0  0  0  0  0  0  0  0  0
   44.1158   -1.4129   44.6885 C   0  0  0  0  0  0  0  0  0  0  0  0
   44.5141   -2.4275   43.8189 C   0  0  0  0  0  0  0  0  0  0  0  0
   43.6701   -3.5206   43.6206 C   0  0  0  0  0  0  0  0  0  0  0  0
   45.7932   -2.2635   43.1686 C   0  0  0  0  0  0  0  0  0  0  0  0
   46.8330   -2.1552   42.5337 C   0  0  0  0  0  0  0  0  0  0  0  0
   48.0071   -2.0605   41.7027 C   0  0  0  0  0  0  0  0  0  0  0  0
   49.2578   -1.7001   42.1944 C   0  0  0  0  0  0  0  0  0  0  0  0
   50.3353   -1.6516   41.3438 C   0  0  0  0  0  0  0  0  0  0  0  0
   50.1926   -1.9551   40.0032 C   0  0  0  0  0  0  0  0  0  0  0  0
   48.9481   -2.3085   39.5115 C   0  0  0  0  0  0  0  0  0  0  0  0
   47.8668   -2.3575   40.3521 C   0  0  0  0  0  0  0  0  0  0  0  0
   48.7362   -2.6426   38.0445 C   0  0  0  0  0  0  0  0  0  0  0  0
   50.0371   -3.0157   37.3100 C   0  0  0  0  0  0  0  0  0  0  0  0
   51.1112   -2.0058   37.6222 N   0  3  1  0  0  0  0  0  0  0  0  0
   51.4239   -1.9166   39.1008 C   0  0  0  0  0  0  0  0  0  0  0  0
   52.3341   -2.2163   36.7700 C   0  0  0  0  0  0  0  0  0  0  0  0
   52.7344   -0.9590   36.0371 C   0  0  0  0  0  0  0  0  0  0  0  0
   53.3283   -0.9119   34.8614 C   0  0  0  0  0  0  0  0  0  0  0  0
   45.1435   -0.0314   44.9644 Cl  0  0  0  0  0  0  0  0  0  0  0  0
   42.1857   -6.4599   46.0972 C   0  0  0  0  0  0  0  0  0  0  0  0
   41.2925   -7.1444   48.8276 H   0  0  0  0  0  0  0  0  0  0  0  0
   41.4916   -8.5365   49.6618 H   0  0  0  0  0  0  0  0  0  0  0  0
   42.6820   -7.4259   49.6433 H   0  0  0  0  0  0  0  0  0  0  0  0
   40.0214   -7.6564   46.8321 H   0  0  0  0  0  0  0  0  0  0  0  0
   40.4073   -9.1938   46.3771 H   0  0  0  0  0  0  0  0  0  0  0  0
   39.0143   -7.9729   44.7599 H   0  0  0  0  0  0  0  0  0  0  0  0
   40.3747   -8.6489   44.1433 H   0  0  0  0  0  0  0  0  0  0  0  0
   38.0946   -5.6580   42.4411 H   0  0  0  0  0  0  0  0  0  0  0  0
   38.5586   -7.2246   42.5169 H   0  0  0  0  0  0  0  0  0  0  0  0
   39.3180   -7.1584   40.4672 H   0  0  0  0  0  0  0  0  0  0  0  0
   40.2426   -5.8364   40.8401 H   0  0  0  0  0  0  0  0  0  0  0  0
   39.0118   -4.6381   39.5362 H   0  0  0  0  0  0  0  0  0  0  0  0
   37.7382   -4.9411   40.5660 H   0  0  0  0  0  0  0  0  0  0  0  0
   38.2702   -6.1665   38.1776 H   0  0  0  0  0  0  0  0  0  0  0  0
   36.2369   -5.6556   37.4598 H   0  0  0  0  0  0  0  0  0  0  0  0
   36.8216   -4.3195   38.1997 H   0  0  0  0  0  0  0  0  0  0  0  0
   34.5704   -4.8269   38.9294 H   0  0  0  0  0  0  0  0  0  0  0  0
   35.6371   -4.8383   40.1734 H   0  0  0  0  0  0  0  0  0  0  0  0
   35.7683   -8.3144   40.4622 H   0  0  0  0  0  0  0  0  0  0  0  0
   36.3582   -6.9179   41.0817 H   0  0  0  0  0  0  0  0  0  0  0  0
   38.0438   -7.9123   39.7397 H   0  0  0  0  0  0  0  0  0  0  0  0
   37.0166   -7.9785   38.4703 H   0  0  0  0  0  0  0  0  0  0  0  0
   41.1904   -2.6048   45.5920 H   0  0  0  0  0  0  0  0  0  0  0  0
   42.6325   -0.7615   45.9625 H   0  0  0  0  0  0  0  0  0  0  0  0
   43.9495   -4.2597   43.0076 H   0  0  0  0  0  0  0  0  0  0  0  0
   49.3718   -1.4775   43.1624 H   0  0  0  0  0  0  0  0  0  0  0  0
   51.2338   -1.3935   41.6990 H   0  0  0  0  0  0  0  0  0  0  0  0
   46.9690   -2.6092   39.9906 H   0  0  0  0  0  0  0  0  0  0  0  0
   48.3302   -1.8484   37.5922 H   0  0  0  0  0  0  0  0  0  0  0  0
   48.1368   -3.4421   38.0068 H   0  0  0  0  0  0  0  0  0  0  0  0
   49.8701   -3.0316   36.3242 H   0  0  0  0  0  0  0  0  0  0  0  0
   50.3387   -3.9194   37.6140 H   0  0  0  0  0  0  0  0  0  0  0  0
   50.7705   -1.1983   37.3736 H   0  0  0  0  0  0  0  0  0  0  0  0
   52.0179   -2.6831   39.3452 H   0  0  0  0  0  0  0  0  0  0  0  0
   51.8609   -1.0293   39.2482 H   0  0  0  0  0  0  0  0  0  0  0  0
   52.1443   -2.9360   36.1021 H   0  0  0  0  0  0  0  0  0  0  0  0
   53.0894   -2.4757   37.3719 H   0  0  0  0  0  0  0  0  0  0  0  0
   52.5315   -0.0866   36.4818 H   0  0  0  0  0  0  0  0  0  0  0  0
   53.5506   -1.7593   34.3793 H   0  0  0  0  0  0  0  0  0  0  0  0
   53.5565   -0.0288   34.4514 H   0  0  0  0  0  0  0  0  0  0  0  0
   43.1659   -6.2958   45.9869 H   0  0  0  0  0  0  0  0  0  0  0  0
   41.8074   -5.9863   46.8926 H   0  0  0  0  0  0  0  0  0  0  0  0
  1  2  1  0  0  0  0
  1 45  1  0  0  0  0
  1 46  1  0  0  0  0
  1 47  1  0  0  0  0
  2  3  2  0  0  0  0
  2  4  2  0  0  0  0
  2  5  1  0  0  0  0
  5  6  1  0  0  0  0
  5 44  1  0  0  0  0
  6  7  1  0  0  0  0
  6 48  1  0  0  0  0
  6 49  1  0  0  0  0
  7  8  1  0  0  0  0
  7 50  1  0  0  0  0
  7 51  1  0  0  0  0
  8  9  2  0  0  0  0
  8 12  1  0  0  0  0
  9 10  1  0  0  0  0
  9 44  1  0  0  0  0
 10 11  2  0  0  0  0
 10 22  1  0  0  0  0
 11 12  1  0  0  0  0
 12 13  1  0  0  0  0
 13 14  1  0  0  0  0
 13 52  1  0  0  0  0
 13 53  1  0  0  0  0
 14 15  1  0  0  0  0
 14 54  1  0  0  0  0
 14 55  1  0  0  0  0
 15 16  1  0  0  0  0
 15 56  1  0  0  0  0
 15 57  1  0  0  0  0
 16 17  1  0  0  0  0
 16 21  1  0  0  0  0
 16 58  1  0  0  0  0
 17 18  1  0  0  0  0
 17 59  1  0  0  0  0
 17 60  1  0  0  0  0
 18 19  1  0  0  0  0
 18 61  1  0  0  0  0
 18 62  1  0  0  0  0
 19 20  1  0  0  0  0
 20 21  1  0  0  0  0
 20 63  1  0  0  0  0
 20 64  1  0  0  0  0
 21 65  1  0  0  0  0
 21 66  1  0  0  0  0
 22 23  2  0  0  0  0
 22 27  1  0  0  0  0
 23 24  1  0  0  0  0
 23 67  1  0  0  0  0
 24 25  2  0  0  0  0
 24 68  1  0  0  0  0
 25 26  1  0  0  0  0
 25 43  1  0  0  0  0
 26 27  2  0  0  0  0
 26 28  1  0  0  0  0
 27 69  1  0  0  0  0
 28 29  3  0  0  0  0
 29 30  1  0  0  0  0
 30 31  2  0  0  0  0
 30 35  1  0  0  0  0
 31 32  1  0  0  0  0
 31 70  1  0  0  0  0
 32 33  2  0  0  0  0
 32 71  1  0  0  0  0
 33 34  1  0  0  0  0
 33 39  1  0  0  0  0
 34 35  2  0  0  0  0
 34 36  1  0  0  0  0
 35 72  1  0  0  0  0
 36 37  1  0  0  0  0
 36 73  1  0  0  0  0
 36 74  1  0  0  0  0
 37 38  1  0  0  0  0
 37 75  1  0  0  0  0
 37 76  1  0  0  0  0
 38 39  1  0  0  0  0
 38 40  1  0  0  0  0
 38 77  1  6  0  0  0
 39 78  1  0  0  0  0
 39 79  1  0  0  0  0
 40 41  1  0  0  0  0
 40 80  1  0  0  0  0
 40 81  1  0  0  0  0
 41 42  2  0  0  0  0
 41 82  1  0  0  0  0
 42 83  1  0  0  0  0
 42 84  1  0  0  0  0
 44 85  1  0  0  0  0
 44 86  1  0  0  0  0
M  CHG  2  16   1  38   1
M  END
