CatS_226:1_D
 OpenBabel12041818463D

 89 93  0  0  1  0  0  0  0  0999 V2000
   36.8306  -16.3573   46.4098 C   0  0  0  0  0  0  0  0  0  0  0  0
   37.3968  -15.6945   45.1408 C   0  0  0  0  0  0  0  0  0  0  0  0
   37.9174  -14.2678   45.4247 C   0  0  1  0  0  0  0  0  0  0  0  0
   39.2474  -14.2904   46.2254 C   0  0  0  0  0  0  0  0  0  0  0  0
   40.1696  -13.0892   45.9056 C   0  0  0  0  0  0  0  0  0  0  0  0
   39.3687  -11.8459   45.6076 N   0  3  2  0  0  0  0  0  0  0  0  0
   38.4702  -12.0185   44.4011 C   0  0  0  0  0  0  0  0  0  0  0  0
   38.1055  -13.4912   44.1067 C   0  0  0  0  0  0  0  0  0  0  0  0
   40.2003  -10.5926   45.4885 C   0  0  0  0  0  0  0  0  0  0  0  0
   40.2995   -9.7248   46.7637 C   0  0  1  0  0  0  0  0  0  0  0  0
   41.3388   -8.6124   46.5121 C   0  0  0  0  0  0  0  0  0  0  0  0
   41.1767   -7.4876   45.5738 N   0  0  0  0  0  0  0  0  0  0  0  0
   41.8610   -6.3244   45.3888 C   0  0  0  0  0  0  0  0  0  0  0  0
   41.3405   -5.5719   44.4155 C   0  0  0  0  0  0  0  0  0  0  0  0
   40.2745   -6.3482   43.9136 C   0  0  0  0  0  0  0  0  0  0  0  0
   40.2074   -7.4487   44.6281 N   0  0  0  0  0  0  0  0  0  0  0  0
   39.3908   -6.0803   42.7912 C   0  0  0  0  0  0  0  0  0  0  0  0
   38.3756   -5.1547   42.9446 C   0  0  0  0  0  0  0  0  0  0  0  0
   37.5033   -4.8928   41.9159 C   0  0  0  0  0  0  0  0  0  0  0  0
   37.6026   -5.5407   40.7019 C   0  0  0  0  0  0  0  0  0  0  0  0
   38.6363   -6.4557   40.5434 C   0  0  0  0  0  0  0  0  0  0  0  0
   39.5170   -6.7180   41.5698 C   0  0  0  0  0  0  0  0  0  0  0  0
   38.8796   -7.3597   39.0085 S   0  0  0  0  0  0  0  0  0  0  0  0
   40.5946   -7.9417   39.0321 C   0  0  0  0  0  0  0  0  0  0  0  0
   41.0765   -8.2475   37.5980 C   0  0  0  0  0  0  0  0  0  0  0  0
   42.4829   -8.7851   37.5350 N   0  3  1  0  0  0  0  0  0  0  0  0
   42.5661  -10.1176   36.8544 C   0  0  0  0  0  0  0  0  0  0  0  0
   42.8785   -9.7654   35.3878 C   0  0  0  0  0  0  0  0  0  0  0  0
   43.4335   -8.3239   35.3945 C   0  0  1  0  0  0  0  0  0  0  0  0
   43.4888   -7.8908   36.8715 C   0  0  0  0  0  0  0  0  0  0  0  0
   44.7191   -8.3207   34.8611 F   0  0  0  0  0  0  0  0  0  0  0  0
   36.5481   -5.1558   39.6623 C   0  0  0  0  0  0  0  0  0  0  0  0
   35.7036   -4.1728   40.1648 F   0  0  0  0  0  0  0  0  0  0  0  0
   35.7442   -6.2306   39.2911 F   0  0  0  0  0  0  0  0  0  0  0  0
   37.0980   -4.6669   38.4832 F   0  0  0  0  0  0  0  0  0  0  0  0
   41.8880   -4.2078   44.0296 C   0  0  0  0  0  0  0  0  0  0  0  0
   42.7677   -3.6291   45.0713 N   0  0  0  0  0  0  0  0  0  0  0  0
   43.7663   -4.6480   45.4651 C   0  0  0  0  0  0  0  0  0  0  0  0
   43.0926   -5.8613   46.1535 C   0  0  0  0  0  0  0  0  0  0  0  0
   43.3281   -2.1299   44.7802 S   0  0  0  0  0  0  0  0  0  0  0  0
   42.1968   -1.3032   44.5092 O   0  0  0  0  0  0  0  0  0  0  0  0
   44.1690   -1.8104   45.8871 O   0  0  0  0  0  0  0  0  0  0  0  0
   44.3435   -2.1756   43.2752 C   0  0  0  0  0  0  0  0  0  0  0  0
   39.0248   -9.1550   47.1007 O   0  0  0  0  0  0  0  0  0  0  0  0
   38.4234  -16.4728   44.6181 F   0  0  0  0  0  0  0  0  0  0  0  0
   36.3943  -15.6546   44.1772 F   0  0  0  0  0  0  0  0  0  0  0  0
   40.5842  -10.2941   47.5350 H   0  0  0  0  0  0  0  0  0  0  0  0
   42.8635   -7.7070   34.8519 H   0  0  0  0  0  0  0  0  0  0  0  0
   35.8753  -16.6057   46.2488 H   0  0  0  0  0  0  0  0  0  0  0  0
   37.3597  -17.1776   46.6273 H   0  0  0  0  0  0  0  0  0  0  0  0
   36.8890  -15.7193   47.1776 H   0  0  0  0  0  0  0  0  0  0  0  0
   37.2310  -13.8034   45.9842 H   0  0  0  0  0  0  0  0  0  0  0  0
   39.7358  -15.1360   46.0099 H   0  0  0  0  0  0  0  0  0  0  0  0
   39.0119  -14.2337   47.1956 H   0  0  0  0  0  0  0  0  0  0  0  0
   40.7351  -13.3132   45.1119 H   0  0  0  0  0  0  0  0  0  0  0  0
   40.7419  -12.9096   46.7058 H   0  0  0  0  0  0  0  0  0  0  0  0
   38.8230  -11.7255   46.3273 H   0  0  0  0  0  0  0  0  0  0  0  0
   38.9360  -11.6397   43.6014 H   0  0  0  0  0  0  0  0  0  0  0  0
   37.6150  -11.5406   44.6019 H   0  0  0  0  0  0  0  0  0  0  0  0
   37.2573  -13.5246   43.5782 H   0  0  0  0  0  0  0  0  0  0  0  0
   38.8476  -13.9112   43.5843 H   0  0  0  0  0  0  0  0  0  0  0  0
   39.8063  -10.0297   44.7618 H   0  0  0  0  0  0  0  0  0  0  0  0
   41.1321  -10.9031   45.3009 H   0  0  0  0  0  0  0  0  0  0  0  0
   42.1695   -9.0862   46.2196 H   0  0  0  0  0  0  0  0  0  0  0  0
   41.2854   -8.1225   47.3822 H   0  0  0  0  0  0  0  0  0  0  0  0
   38.2751   -4.6705   43.8137 H   0  0  0  0  0  0  0  0  0  0  0  0
   36.7791   -4.2164   42.0504 H   0  0  0  0  0  0  0  0  0  0  0  0
   40.2561   -7.3770   41.4305 H   0  0  0  0  0  0  0  0  0  0  0  0
   40.6553   -8.7713   39.5871 H   0  0  0  0  0  0  0  0  0  0  0  0
   41.1748   -7.2275   39.4234 H   0  0  0  0  0  0  0  0  0  0  0  0
   41.0337   -7.4043   37.0622 H   0  0  0  0  0  0  0  0  0  0  0  0
   40.4759   -8.9588   37.2328 H   0  0  0  0  0  0  0  0  0  0  0  0
   42.7658   -8.9112   38.3932 H   0  0  0  0  0  0  0  0  0  0  0  0
   41.6995  -10.6112   36.9278 H   0  0  0  0  0  0  0  0  0  0  0  0
   43.2559  -10.7162   37.2616 H   0  0  0  0  0  0  0  0  0  0  0  0
   42.0477   -9.8163   34.8336 H   0  0  0  0  0  0  0  0  0  0  0  0
   43.5386  -10.4051   34.9940 H   0  0  0  0  0  0  0  0  0  0  0  0
   44.4020   -8.0309   37.2544 H   0  0  0  0  0  0  0  0  0  0  0  0
   43.2912   -6.9189   36.9998 H   0  0  0  0  0  0  0  0  0  0  0  0
   41.1206   -3.5858   43.8739 H   0  0  0  0  0  0  0  0  0  0  0  0
   42.4385   -4.3262   43.2032 H   0  0  0  0  0  0  0  0  0  0  0  0
   44.4229   -4.2354   46.0965 H   0  0  0  0  0  0  0  0  0  0  0  0
   44.2282   -4.9720   44.6395 H   0  0  0  0  0  0  0  0  0  0  0  0
   43.7482   -6.6148   46.2034 H   0  0  0  0  0  0  0  0  0  0  0  0
   42.8056   -5.5808   47.0694 H   0  0  0  0  0  0  0  0  0  0  0  0
   45.2918   -1.9684   43.5158 H   0  0  0  0  0  0  0  0  0  0  0  0
   44.2921   -3.0841   42.8605 H   0  0  0  0  0  0  0  0  0  0  0  0
   44.0058   -1.4994   42.6205 H   0  0  0  0  0  0  0  0  0  0  0  0
   38.5174   -9.7439   47.7393 H   0  0  0  0  0  0  0  0  0  0  0  0
  1  2  1  0  0  0  0
  1 49  1  0  0  0  0
  1 50  1  0  0  0  0
  1 51  1  0  0  0  0
  2  3  1  0  0  0  0
  2 45  1  0  0  0  0
  2 46  1  0  0  0  0
  3  4  1  0  0  0  0
  3  8  1  0  0  0  0
  3 52  1  1  0  0  0
  4  5  1  0  0  0  0
  4 53  1  0  0  0  0
  4 54  1  0  0  0  0
  5  6  1  0  0  0  0
  5 55  1  0  0  0  0
  5 56  1  0  0  0  0
  6  7  1  0  0  0  0
  6  9  1  0  0  0  0
  6 57  1  1  0  0  0
  7  8  1  0  0  0  0
  7 58  1  0  0  0  0
  7 59  1  0  0  0  0
  8 60  1  0  0  0  0
  8 61  1  0  0  0  0
  9 10  1  0  0  0  0
  9 62  1  0  0  0  0
  9 63  1  0  0  0  0
 10 11  1  0  0  0  0
 10 44  1  0  0  0  0
 10 47  1  1  0  0  0
 11 12  1  0  0  0  0
 11 64  1  0  0  0  0
 11 65  1  0  0  0  0
 12 13  1  0  0  0  0
 12 16  1  0  0  0  0
 13 14  2  0  0  0  0
 13 39  1  0  0  0  0
 14 15  1  0  0  0  0
 14 36  1  0  0  0  0
 15 16  2  0  0  0  0
 15 17  1  0  0  0  0
 17 18  2  0  0  0  0
 17 22  1  0  0  0  0
 18 19  1  0  0  0  0
 18 66  1  0  0  0  0
 19 20  2  0  0  0  0
 19 67  1  0  0  0  0
 20 21  1  0  0  0  0
 20 32  1  0  0  0  0
 21 22  2  0  0  0  0
 21 23  1  0  0  0  0
 22 68  1  0  0  0  0
 23 24  1  0  0  0  0
 24 25  1  0  0  0  0
 24 69  1  0  0  0  0
 24 70  1  0  0  0  0
 25 26  1  0  0  0  0
 25 71  1  0  0  0  0
 25 72  1  0  0  0  0
 26 27  1  0  0  0  0
 26 30  1  0  0  0  0
 26 73  1  1  0  0  0
 27 28  1  0  0  0  0
 27 74  1  0  0  0  0
 27 75  1  0  0  0  0
 28 29  1  0  0  0  0
 28 76  1  0  0  0  0
 28 77  1  0  0  0  0
 29 30  1  0  0  0  0
 29 31  1  0  0  0  0
 29 48  1  6  0  0  0
 30 78  1  0  0  0  0
 30 79  1  0  0  0  0
 32 33  1  0  0  0  0
 32 34  1  0  0  0  0
 32 35  1  0  0  0  0
 36 37  1  0  0  0  0
 36 80  1  0  0  0  0
 36 81  1  0  0  0  0
 37 38  1  0  0  0  0
 37 40  1  0  0  0  0
 38 39  1  0  0  0  0
 38 82  1  0  0  0  0
 38 83  1  0  0  0  0
 39 84  1  0  0  0  0
 39 85  1  0  0  0  0
 40 41  2  0  0  0  0
 40 42  2  0  0  0  0
 40 43  1  0  0  0  0
 43 86  1  0  0  0  0
 43 87  1  0  0  0  0
 43 88  1  0  0  0  0
 44 89  1  0  0  0  0
M  CHG  2   6   1  26   1
M  END
