CatS_192:1_D
 OpenBabel12041818463D

101106  0  0  1  0  0  0  0  0999 V2000
   51.8556   -3.0450   35.8282 C   0  0  0  0  0  0  0  0  0  0  0  0
   50.7610   -2.8472   36.8868 C   0  0  2  0  0  0  0  0  0  0  0  0
   51.3326   -2.1142   38.1128 C   0  0  0  0  0  0  0  0  0  0  0  0
   50.2046   -1.8925   39.1394 C   0  0  0  0  0  0  0  0  0  0  0  0
   49.5399   -3.1835   39.5520 N   0  3  2  0  0  0  0  0  0  0  0  0
   49.0978   -4.0210   38.3707 C   0  0  0  0  0  0  0  0  0  0  0  0
   50.2246   -4.2154   37.3379 C   0  0  0  0  0  0  0  0  0  0  0  0
   48.4383   -2.8929   40.5421 C   0  0  0  0  0  0  0  0  0  0  0  0
   48.8960   -2.3845   41.9232 C   0  0  0  0  0  0  0  0  0  0  0  0
   47.5892   -1.3155   42.5861 S   0  0  0  0  0  0  0  0  0  0  0  0
   45.9550   -2.0546   42.7721 C   0  0  0  0  0  0  0  0  0  0  0  0
   45.7446   -2.7434   43.9481 C   0  0  0  0  0  0  0  0  0  0  0  0
   44.5149   -3.3091   44.2241 C   0  0  0  0  0  0  0  0  0  0  0  0
   43.5099   -3.1985   43.2830 C   0  0  0  0  0  0  0  0  0  0  0  0
   43.7187   -2.5071   42.1161 C   0  0  0  0  0  0  0  0  0  0  0  0
   44.9325   -1.9119   41.8358 C   0  0  0  0  0  0  0  0  0  0  0  0
   44.9700   -1.1460   40.5122 C   0  0  0  0  0  0  0  0  0  0  0  0
   45.4962   -1.8828   39.4524 F   0  0  0  0  0  0  0  0  0  0  0  0
   43.6919   -0.7693   40.1114 F   0  0  0  0  0  0  0  0  0  0  0  0
   45.7580   -0.0055   40.6166 F   0  0  0  0  0  0  0  0  0  0  0  0
   44.2051   -4.0197   45.4505 C   0  0  0  0  0  0  0  0  0  0  0  0
   43.6304   -3.5619   46.6580 C   0  0  0  0  0  0  0  0  0  0  0  0
   43.5145   -4.6775   47.3875 C   0  0  0  0  0  0  0  0  0  0  0  0
   43.9545   -5.7912   46.7343 N   0  0  0  0  0  0  0  0  0  0  0  0
   44.3786   -5.3179   45.5447 N   0  0  0  0  0  0  0  0  0  0  0  0
   43.8345   -7.2341   46.9968 C   0  0  0  0  0  0  0  0  0  0  0  0
   42.6689   -8.2270   46.8127 C   0  0  2  0  0  0  0  0  0  0  0  0
   41.3296   -7.4855   46.5659 C   0  0  0  0  0  0  0  0  0  0  0  0
   40.9004   -7.2714   45.1306 N   0  3  2  0  0  0  0  0  0  0  0  0
   40.9182   -5.8146   44.7309 C   0  0  0  0  0  0  0  0  0  0  0  0
   40.5792   -5.6450   43.2379 C   0  0  0  0  0  0  0  0  0  0  0  0
   39.1803   -6.2239   42.9375 C   0  0  2  0  0  0  0  0  0  0  0  0
   39.1697   -7.7157   43.3446 C   0  0  0  0  0  0  0  0  0  0  0  0
   39.5578   -7.8931   44.8300 C   0  0  0  0  0  0  0  0  0  0  0  0
   38.6453   -6.0250   41.5728 N   0  0  0  0  0  0  0  0  0  0  0  0
   38.4340   -7.1574   40.6629 C   0  0  0  0  0  0  0  0  0  0  0  0
   37.4822   -6.5259   39.6320 C   0  0  1  0  0  0  0  0  0  0  0  0
   37.7152   -5.0082   39.7109 C   0  0  0  0  0  0  0  0  0  0  0  0
   38.2924   -4.8238   41.0888 C   0  0  0  0  0  0  0  0  0  0  0  0
   38.3931   -3.7384   41.6432 O   0  0  0  0  0  0  0  0  0  0  0  0
   37.7414   -7.0210   38.3104 O   0  0  0  0  0  0  0  0  0  0  0  0
   42.4751   -9.0114   47.9991 O   0  0  0  0  0  0  0  0  0  0  0  0
   42.9200   -4.6318   48.7840 C   0  0  0  0  0  0  0  0  0  0  0  0
   42.7092   -3.1819   49.2886 C   0  0  0  0  0  0  0  0  0  0  0  0
   42.1996   -2.2418   48.2676 N   0  0  0  0  0  0  0  0  0  0  0  0
   43.1625   -2.1898   47.1392 C   0  0  0  0  0  0  0  0  0  0  0  0
   41.6641   -0.8248   48.8959 S   0  0  0  0  0  0  0  0  0  0  0  0
   41.1448   -0.0269   47.8280 O   0  0  0  0  0  0  0  0  0  0  0  0
   40.6845   -1.1237   49.8934 O   0  0  0  0  0  0  0  0  0  0  0  0
   43.0202    0.0904   49.6834 C   0  0  0  0  0  0  0  0  0  0  0  0
   42.9106   -8.7999   46.0296 H   0  0  0  0  0  0  0  0  0  0  0  0
   36.5303   -6.7579   39.8320 H   0  0  0  0  0  0  0  0  0  0  0  0
   51.4290   -3.1032   34.9257 H   0  0  0  0  0  0  0  0  0  0  0  0
   52.4912   -2.2734   35.8512 H   0  0  0  0  0  0  0  0  0  0  0  0
   52.3596   -3.8875   36.0185 H   0  0  0  0  0  0  0  0  0  0  0  0
   50.0239   -2.3036   36.4852 H   0  0  0  0  0  0  0  0  0  0  0  0
   51.7108   -1.2323   37.8313 H   0  0  0  0  0  0  0  0  0  0  0  0
   52.0587   -2.6642   38.5257 H   0  0  0  0  0  0  0  0  0  0  0  0
   49.5166   -1.2884   38.7371 H   0  0  0  0  0  0  0  0  0  0  0  0
   50.6123   -1.4861   39.9571 H   0  0  0  0  0  0  0  0  0  0  0  0
   50.1726   -3.6736   39.9885 H   0  0  0  0  0  0  0  0  0  0  0  0
   48.3246   -3.5691   37.9257 H   0  0  0  0  0  0  0  0  0  0  0  0
   48.8409   -4.9240   38.7150 H   0  0  0  0  0  0  0  0  0  0  0  0
   50.9666   -4.7454   37.7482 H   0  0  0  0  0  0  0  0  0  0  0  0
   49.8624   -4.7051   36.5448 H   0  0  0  0  0  0  0  0  0  0  0  0
   47.9173   -3.7353   40.6796 H   0  0  0  0  0  0  0  0  0  0  0  0
   47.9039   -2.1479   40.1430 H   0  0  0  0  0  0  0  0  0  0  0  0
   49.7472   -1.8678   41.8316 H   0  0  0  0  0  0  0  0  0  0  0  0
   49.0607   -3.1541   42.5401 H   0  0  0  0  0  0  0  0  0  0  0  0
   46.4902   -2.8343   44.6082 H   0  0  0  0  0  0  0  0  0  0  0  0
   42.6222   -3.6260   43.4534 H   0  0  0  0  0  0  0  0  0  0  0  0
   42.9739   -2.4326   41.4529 H   0  0  0  0  0  0  0  0  0  0  0  0
   44.0633   -7.3161   47.9668 H   0  0  0  0  0  0  0  0  0  0  0  0
   44.3612   -7.5353   46.2019 H   0  0  0  0  0  0  0  0  0  0  0  0
   41.4007   -6.5858   46.9966 H   0  0  0  0  0  0  0  0  0  0  0  0
   40.6313   -8.0893   46.9504 H   0  0  0  0  0  0  0  0  0  0  0  0
   41.4972   -7.7126   44.6031 H   0  0  0  0  0  0  0  0  0  0  0  0
   41.8273   -5.4372   44.9069 H   0  0  0  0  0  0  0  0  0  0  0  0
   40.2289   -5.3293   45.2689 H   0  0  0  0  0  0  0  0  0  0  0  0
   41.2625   -6.1235   42.6864 H   0  0  0  0  0  0  0  0  0  0  0  0
   40.5822   -4.6708   43.0121 H   0  0  0  0  0  0  0  0  0  0  0  0
   38.5431   -5.6847   43.4882 H   0  0  0  0  0  0  0  0  0  0  0  0
   39.8203   -8.2158   42.7730 H   0  0  0  0  0  0  0  0  0  0  0  0
   38.2443   -8.0721   43.2159 H   0  0  0  0  0  0  0  0  0  0  0  0
   38.8622   -7.4606   45.4037 H   0  0  0  0  0  0  0  0  0  0  0  0
   39.6163   -8.8727   45.0222 H   0  0  0  0  0  0  0  0  0  0  0  0
   38.0115   -7.9336   41.1307 H   0  0  0  0  0  0  0  0  0  0  0  0
   39.2729   -7.5364   40.2723 H   0  0  0  0  0  0  0  0  0  0  0  0
   36.8569   -4.5056   39.6079 H   0  0  0  0  0  0  0  0  0  0  0  0
   38.3117   -4.6635   38.9861 H   0  0  0  0  0  0  0  0  0  0  0  0
   38.3275   -6.3893   37.7912 H   0  0  0  0  0  0  0  0  0  0  0  0
   42.6985   -8.4942   48.8284 H   0  0  0  0  0  0  0  0  0  0  0  0
   43.5356   -5.1071   49.4124 H   0  0  0  0  0  0  0  0  0  0  0  0
   42.0239   -5.0743   48.7483 H   0  0  0  0  0  0  0  0  0  0  0  0
   43.5857   -2.8366   49.6241 H   0  0  0  0  0  0  0  0  0  0  0  0
   42.0098   -3.2295   50.0017 H   0  0  0  0  0  0  0  0  0  0  0  0
   42.7272   -1.7178   46.3725 H   0  0  0  0  0  0  0  0  0  0  0  0
   43.9729   -1.7090   47.4741 H   0  0  0  0  0  0  0  0  0  0  0  0
   42.8148    0.2041   50.6555 H   0  0  0  0  0  0  0  0  0  0  0  0
   43.8760   -0.4159   49.5770 H   0  0  0  0  0  0  0  0  0  0  0  0
   43.1167    0.9871   49.2515 H   0  0  0  0  0  0  0  0  0  0  0  0
  1  2  1  0  0  0  0
  1 53  1  0  0  0  0
  1 54  1  0  0  0  0
  1 55  1  0  0  0  0
  2  3  1  0  0  0  0
  2  7  1  0  0  0  0
  2 56  1  6  0  0  0
  3  4  1  0  0  0  0
  3 57  1  0  0  0  0
  3 58  1  0  0  0  0
  4  5  1  0  0  0  0
  4 59  1  0  0  0  0
  4 60  1  0  0  0  0
  5  6  1  0  0  0  0
  5  8  1  0  0  0  0
  5 61  1  1  0  0  0
  6  7  1  0  0  0  0
  6 62  1  0  0  0  0
  6 63  1  0  0  0  0
  7 64  1  0  0  0  0
  7 65  1  0  0  0  0
  8  9  1  0  0  0  0
  8 66  1  0  0  0  0
  8 67  1  0  0  0  0
  9 10  1  0  0  0  0
  9 68  1  0  0  0  0
  9 69  1  0  0  0  0
 10 11  1  0  0  0  0
 11 12  2  0  0  0  0
 11 16  1  0  0  0  0
 12 13  1  0  0  0  0
 12 70  1  0  0  0  0
 13 14  2  0  0  0  0
 13 21  1  0  0  0  0
 14 15  1  0  0  0  0
 14 71  1  0  0  0  0
 15 16  2  0  0  0  0
 15 72  1  0  0  0  0
 16 17  1  0  0  0  0
 17 18  1  0  0  0  0
 17 19  1  0  0  0  0
 17 20  1  0  0  0  0
 21 22  1  0  0  0  0
 21 25  2  0  0  0  0
 22 23  2  0  0  0  0
 22 46  1  0  0  0  0
 23 24  1  0  0  0  0
 23 43  1  0  0  0  0
 24 25  1  0  0  0  0
 24 26  1  0  0  0  0
 26 27  1  0  0  0  0
 26 73  1  0  0  0  0
 26 74  1  0  0  0  0
 27 28  1  0  0  0  0
 27 42  1  0  0  0  0
 27 51  1  6  0  0  0
 28 29  1  0  0  0  0
 28 75  1  0  0  0  0
 28 76  1  0  0  0  0
 29 30  1  0  0  0  0
 29 34  1  0  0  0  0
 29 77  1  6  0  0  0
 30 31  1  0  0  0  0
 30 78  1  0  0  0  0
 30 79  1  0  0  0  0
 31 32  1  0  0  0  0
 31 80  1  0  0  0  0
 31 81  1  0  0  0  0
 32 33  1  0  0  0  0
 32 35  1  0  0  0  0
 32 82  1  1  0  0  0
 33 34  1  0  0  0  0
 33 83  1  0  0  0  0
 33 84  1  0  0  0  0
 34 85  1  0  0  0  0
 34 86  1  0  0  0  0
 35 36  1  0  0  0  0
 35 39  1  0  0  0  0
 36 37  1  0  0  0  0
 36 87  1  0  0  0  0
 36 88  1  0  0  0  0
 37 38  1  0  0  0  0
 37 41  1  0  0  0  0
 37 52  1  1  0  0  0
 38 39  1  0  0  0  0
 38 89  1  0  0  0  0
 38 90  1  0  0  0  0
 39 40  2  0  0  0  0
 41 91  1  0  0  0  0
 42 92  1  0  0  0  0
 43 44  1  0  0  0  0
 43 93  1  0  0  0  0
 43 94  1  0  0  0  0
 44 45  1  0  0  0  0
 44 95  1  0  0  0  0
 44 96  1  0  0  0  0
 45 46  1  0  0  0  0
 45 47  1  0  0  0  0
 46 97  1  0  0  0  0
 46 98  1  0  0  0  0
 47 48  2  0  0  0  0
 47 49  2  0  0  0  0
 47 50  1  0  0  0  0
 50 99  1  0  0  0  0
 50100  1  0  0  0  0
 50101  1  0  0  0  0
M  CHG  2   5   1  29   1
M  END
