CatS_325:1_D
 OpenBabel12041818463D

 94100  0  0  1  0  0  0  0  0999 V2000
   42.0528   -7.1756   49.4810 C   0  0  0  0  0  0  0  0  0  0  0  0
   42.6289   -8.2613   48.1471 S   0  0  0  0  0  0  0  0  0  0  0  0
   44.0374   -8.0902   48.0025 O   0  0  0  0  0  0  0  0  0  0  0  0
   42.1426   -9.5755   48.4148 O   0  0  0  0  0  0  0  0  0  0  0  0
   41.9443   -7.7983   46.7444 N   0  0  0  0  0  0  0  0  0  0  0  0
   40.4875   -7.9816   46.5701 C   0  0  0  0  0  0  0  0  0  0  0  0
   40.0780   -7.8375   45.0855 C   0  0  0  0  0  0  0  0  0  0  0  0
   40.6286   -6.5525   44.4906 C   0  0  0  0  0  0  0  0  0  0  0  0
   41.6342   -5.9036   45.0803 C   0  0  0  0  0  0  0  0  0  0  0  0
   41.8012   -4.7455   44.2863 C   0  0  0  0  0  0  0  0  0  0  0  0
   40.9419   -4.8067   43.2893 N   0  0  0  0  0  0  0  0  0  0  0  0
   40.1802   -5.9258   43.3698 N   0  0  0  0  0  0  0  0  0  0  0  0
   39.0672   -6.2313   42.4551 C   0  0  0  0  0  0  0  0  0  0  0  0
   38.3344   -5.0553   41.7753 C   0  0  0  0  0  0  0  0  0  0  0  0
   38.7102   -4.8966   40.2837 C   0  0  0  0  0  0  0  0  0  0  0  0
   37.8350   -5.6764   39.3326 N   0  3  0  0  0  0  0  0  0  0  0  0
   36.4974   -5.0233   39.0947 C   0  0  0  0  0  0  0  0  0  0  0  0
   35.7017   -5.8552   38.0705 C   0  0  0  0  0  0  0  0  0  0  0  0
   35.5549   -7.2106   38.5356 O   0  0  0  0  0  0  0  0  0  0  0  0
   36.8228   -7.8715   38.7100 C   0  0  0  0  0  0  0  0  0  0  0  0
   37.6912   -7.1219   39.7393 C   0  0  0  0  0  0  0  0  0  0  0  0
   42.7093   -3.6270   44.4990 C   0  0  0  0  0  0  0  0  0  0  0  0
   42.4358   -2.6919   45.4896 C   0  0  0  0  0  0  0  0  0  0  0  0
   43.2629   -1.6101   45.6925 C   0  0  0  0  0  0  0  0  0  0  0  0
   44.3783   -1.4442   44.9131 C   0  0  0  0  0  0  0  0  0  0  0  0
   44.6810   -2.3729   43.9199 C   0  0  0  0  0  0  0  0  0  0  0  0
   43.8453   -3.4699   43.7239 C   0  0  0  0  0  0  0  0  0  0  0  0
   45.8529   -2.0916   43.1290 C   0  0  0  0  0  0  0  0  0  0  0  0
   46.8225   -1.9769   42.3944 C   0  0  0  0  0  0  0  0  0  0  0  0
   47.9256   -1.9810   41.4673 C   0  0  0  0  0  0  0  0  0  0  0  0
   49.1947   -1.8949   42.0283 C   0  0  0  0  0  0  0  0  0  0  0  0
   50.3057   -1.9194   41.2301 C   0  0  0  0  0  0  0  0  0  0  0  0
   50.1707   -2.0380   39.8652 C   0  0  0  0  0  0  0  0  0  0  0  0
   48.9137   -2.1256   39.2900 C   0  0  0  0  0  0  0  0  0  0  0  0
   47.7909   -2.0880   40.0848 C   0  0  0  0  0  0  0  0  0  0  0  0
   48.7898   -2.2681   37.7776 C   0  0  0  0  0  0  0  0  0  0  0  0
   50.0277   -2.8980   37.1860 N   0  3  0  0  0  0  0  0  0  0  0  0
   51.3118   -2.1856   37.5227 C   0  0  1  0  0  0  0  0  0  0  0  0
   51.4594   -2.0992   39.0601 C   0  0  0  0  0  0  0  0  0  0  0  0
   52.5106   -2.9515   36.9857 C   0  0  0  0  0  0  0  0  0  0  0  0
   52.6798   -4.1284   37.2776 O   0  0  0  0  0  0  0  0  0  0  0  0
   53.3780   -2.2347   36.2393 N   0  0  0  0  0  0  0  0  0  0  0  0
   53.0343   -0.9487   35.5940 C   0  0  0  0  0  0  0  0  0  0  0  0
   53.7302   -0.7910   34.2264 C   0  0  0  0  0  0  0  0  0  0  0  0
   55.1266   -1.1326   34.3002 O   0  0  0  0  0  0  0  0  0  0  0  0
   55.3289   -2.5026   34.6880 C   0  0  0  0  0  0  0  0  0  0  0  0
   54.7570   -2.7359   36.0958 C   0  0  0  0  0  0  0  0  0  0  0  0
   45.4078   -0.0623   45.1693 Cl  0  0  0  0  0  0  0  0  0  0  0  0
   42.3115   -6.4186   46.3455 C   0  0  0  0  0  0  0  0  0  0  0  0
   51.2807   -1.2752   37.1101 H   0  0  0  0  0  0  0  0  0  0  0  0
   41.4234   -6.4982   49.1005 H   0  0  0  0  0  0  0  0  0  0  0  0
   41.5835   -7.7172   50.1785 H   0  0  0  0  0  0  0  0  0  0  0  0
   42.8343   -6.7130   49.8996 H   0  0  0  0  0  0  0  0  0  0  0  0
   40.0038   -7.2948   47.1125 H   0  0  0  0  0  0  0  0  0  0  0  0
   40.2462   -8.9029   46.8753 H   0  0  0  0  0  0  0  0  0  0  0  0
   39.0803   -7.8302   45.0191 H   0  0  0  0  0  0  0  0  0  0  0  0
   40.4550   -8.6103   44.5748 H   0  0  0  0  0  0  0  0  0  0  0  0
   38.3864   -6.7455   42.9768 H   0  0  0  0  0  0  0  0  0  0  0  0
   39.4982   -6.7222   41.6980 H   0  0  0  0  0  0  0  0  0  0  0  0
   38.5668   -4.2107   42.2575 H   0  0  0  0  0  0  0  0  0  0  0  0
   37.3539   -5.2467   41.8185 H   0  0  0  0  0  0  0  0  0  0  0  0
   39.6551   -5.2011   40.1639 H   0  0  0  0  0  0  0  0  0  0  0  0
   38.5825   -3.9305   40.0592 H   0  0  0  0  0  0  0  0  0  0  0  0
   38.2616   -5.6847   38.5278 H   0  0  0  0  0  0  0  0  0  0  0  0
   36.6336   -4.0970   38.7435 H   0  0  0  0  0  0  0  0  0  0  0  0
   35.9892   -4.9764   39.9547 H   0  0  0  0  0  0  0  0  0  0  0  0
   36.1853   -5.8544   37.1952 H   0  0  0  0  0  0  0  0  0  0  0  0
   34.7943   -5.4508   37.9569 H   0  0  0  0  0  0  0  0  0  0  0  0
   37.3021   -7.9021   37.8327 H   0  0  0  0  0  0  0  0  0  0  0  0
   36.6581   -8.7992   39.0449 H   0  0  0  0  0  0  0  0  0  0  0  0
   37.2607   -7.1732   40.6404 H   0  0  0  0  0  0  0  0  0  0  0  0
   38.5963   -7.5454   39.7761 H   0  0  0  0  0  0  0  0  0  0  0  0
   41.6255   -2.8064   46.0643 H   0  0  0  0  0  0  0  0  0  0  0  0
   43.0500   -0.9454   46.4086 H   0  0  0  0  0  0  0  0  0  0  0  0
   44.0667   -4.1460   43.0211 H   0  0  0  0  0  0  0  0  0  0  0  0
   49.2960   -1.8147   43.0198 H   0  0  0  0  0  0  0  0  0  0  0  0
   51.2160   -1.8512   41.6384 H   0  0  0  0  0  0  0  0  0  0  0  0
   46.8817   -2.1372   39.6715 H   0  0  0  0  0  0  0  0  0  0  0  0
   48.6559   -1.3633   37.3730 H   0  0  0  0  0  0  0  0  0  0  0  0
   48.0085   -2.8594   37.5781 H   0  0  0  0  0  0  0  0  0  0  0  0
   50.0772   -3.7679   37.4465 H   0  0  0  0  0  0  0  0  0  0  0  0
   49.9473   -2.9410   36.2798 H   0  0  0  0  0  0  0  0  0  0  0  0
   51.9706   -2.9032   39.3639 H   0  0  0  0  0  0  0  0  0  0  0  0
   51.9184   -1.2274   39.2309 H   0  0  0  0  0  0  0  0  0  0  0  0
   53.3167   -0.1988   36.1921 H   0  0  0  0  0  0  0  0  0  0  0  0
   52.0460   -0.9312   35.4424 H   0  0  0  0  0  0  0  0  0  0  0  0
   53.6410    0.1576   33.9228 H   0  0  0  0  0  0  0  0  0  0  0  0
   53.2910   -1.4133   33.5784 H   0  0  0  0  0  0  0  0  0  0  0  0
   56.3075   -2.7086   34.6862 H   0  0  0  0  0  0  0  0  0  0  0  0
   54.8599   -3.1018   34.0392 H   0  0  0  0  0  0  0  0  0  0  0  0
   54.7640   -3.7172   36.2882 H   0  0  0  0  0  0  0  0  0  0  0  0
   55.3305   -2.2312   36.7410 H   0  0  0  0  0  0  0  0  0  0  0  0
   43.3008   -6.3899   46.2027 H   0  0  0  0  0  0  0  0  0  0  0  0
   41.9983   -5.8244   47.0863 H   0  0  0  0  0  0  0  0  0  0  0  0
  1  2  1  0  0  0  0
  1 51  1  0  0  0  0
  1 52  1  0  0  0  0
  1 53  1  0  0  0  0
  2  3  2  0  0  0  0
  2  4  2  0  0  0  0
  2  5  1  0  0  0  0
  5  6  1  0  0  0  0
  5 49  1  0  0  0  0
  6  7  1  0  0  0  0
  6 54  1  0  0  0  0
  6 55  1  0  0  0  0
  7  8  1  0  0  0  0
  7 56  1  0  0  0  0
  7 57  1  0  0  0  0
  8  9  2  0  0  0  0
  8 12  1  0  0  0  0
  9 10  1  0  0  0  0
  9 49  1  0  0  0  0
 10 11  2  0  0  0  0
 10 22  1  0  0  0  0
 11 12  1  0  0  0  0
 12 13  1  0  0  0  0
 13 14  1  0  0  0  0
 13 58  1  0  0  0  0
 13 59  1  0  0  0  0
 14 15  1  0  0  0  0
 14 60  1  0  0  0  0
 14 61  1  0  0  0  0
 15 16  1  0  0  0  0
 15 62  1  0  0  0  0
 15 63  1  0  0  0  0
 16 17  1  0  0  0  0
 16 21  1  0  0  0  0
 16 64  1  0  0  0  0
 17 18  1  0  0  0  0
 17 65  1  0  0  0  0
 17 66  1  0  0  0  0
 18 19  1  0  0  0  0
 18 67  1  0  0  0  0
 18 68  1  0  0  0  0
 19 20  1  0  0  0  0
 20 21  1  0  0  0  0
 20 69  1  0  0  0  0
 20 70  1  0  0  0  0
 21 71  1  0  0  0  0
 21 72  1  0  0  0  0
 22 23  2  0  0  0  0
 22 27  1  0  0  0  0
 23 24  1  0  0  0  0
 23 73  1  0  0  0  0
 24 25  2  0  0  0  0
 24 74  1  0  0  0  0
 25 26  1  0  0  0  0
 25 48  1  0  0  0  0
 26 27  2  0  0  0  0
 26 28  1  0  0  0  0
 27 75  1  0  0  0  0
 28 29  3  0  0  0  0
 29 30  1  0  0  0  0
 30 31  2  0  0  0  0
 30 35  1  0  0  0  0
 31 32  1  0  0  0  0
 31 76  1  0  0  0  0
 32 33  2  0  0  0  0
 32 77  1  0  0  0  0
 33 34  1  0  0  0  0
 33 39  1  0  0  0  0
 34 35  2  0  0  0  0
 34 36  1  0  0  0  0
 35 78  1  0  0  0  0
 36 37  1  0  0  0  0
 36 79  1  0  0  0  0
 36 80  1  0  0  0  0
 37 38  1  0  0  0  0
 37 81  1  0  0  0  0
 37 82  1  0  0  0  0
 38 39  1  0  0  0  0
 38 40  1  0  0  0  0
 38 50  1  6  0  0  0
 39 83  1  0  0  0  0
 39 84  1  0  0  0  0
 40 41  2  0  0  0  0
 40 42  1  0  0  0  0
 42 43  1  0  0  0  0
 42 47  1  0  0  0  0
 43 44  1  0  0  0  0
 43 85  1  0  0  0  0
 43 86  1  0  0  0  0
 44 45  1  0  0  0  0
 44 87  1  0  0  0  0
 44 88  1  0  0  0  0
 45 46  1  0  0  0  0
 46 47  1  0  0  0  0
 46 89  1  0  0  0  0
 46 90  1  0  0  0  0
 47 91  1  0  0  0  0
 47 92  1  0  0  0  0
 49 93  1  0  0  0  0
 49 94  1  0  0  0  0
M  CHG  2  16   1  37   1
M  END
