CatS_102:1_D
 OpenBabel12041818463D

 93 98  0  0  1  0  0  0  0  0999 V2000
   49.0998   -3.1348   37.9915 C   0  0  0  0  0  0  0  0  0  0  0  0
   50.4395   -3.1147   38.3051 C   0  0  0  0  0  0  0  0  0  0  0  0
   50.8482   -2.7545   39.5707 C   0  0  0  0  0  0  0  0  0  0  0  0
   49.9099   -2.4141   40.5167 C   0  0  0  0  0  0  0  0  0  0  0  0
   48.5555   -2.4273   40.2176 C   0  0  0  0  0  0  0  0  0  0  0  0
   48.1651   -2.7961   38.9396 C   0  0  0  0  0  0  0  0  0  0  0  0
   47.5944   -2.0844   41.1847 N   0  0  0  0  0  0  0  0  0  0  0  0
   47.9314   -2.0486   42.6238 C   0  0  0  0  0  0  0  0  0  0  0  0
   46.6952   -2.3246   43.5037 C   0  0  0  0  0  0  0  0  0  0  0  0
   45.5583   -1.4025   43.1416 N   0  3  0  0  0  0  0  0  0  0  0  0
   45.2468   -1.4387   41.6678 C   0  0  0  0  0  0  0  0  0  0  0  0
   46.5196   -1.1252   40.8592 C   0  0  0  0  0  0  0  0  0  0  0  0
   44.3334   -1.6240   43.9934 C   0  0  0  0  0  0  0  0  0  0  0  0
   43.5528   -2.8887   43.5812 C   0  0  1  0  0  0  0  0  0  0  0  0
   42.7703   -3.4571   44.7804 C   0  0  0  0  0  0  0  0  0  0  0  0
   41.7067   -4.4228   44.4641 N   0  0  0  0  0  0  0  0  0  0  0  0
   41.4262   -5.6302   45.0159 C   0  0  0  0  0  0  0  0  0  0  0  0
   40.4261   -6.2603   44.3895 C   0  0  0  0  0  0  0  0  0  0  0  0
   40.0581   -5.3625   43.3612 C   0  0  0  0  0  0  0  0  0  0  0  0
   40.8272   -4.2992   43.4458 N   0  0  0  0  0  0  0  0  0  0  0  0
   39.0310   -5.5087   42.3448 C   0  0  0  0  0  0  0  0  0  0  0  0
   37.9186   -4.6870   42.3094 C   0  0  0  0  0  0  0  0  0  0  0  0
   36.9663   -4.8433   41.3304 C   0  0  0  0  0  0  0  0  0  0  0  0
   37.0900   -5.8072   40.3501 C   0  0  0  0  0  0  0  0  0  0  0  0
   38.2108   -6.6270   40.3866 C   0  0  0  0  0  0  0  0  0  0  0  0
   39.1592   -6.4824   41.3729 C   0  0  0  0  0  0  0  0  0  0  0  0
   38.5242   -7.8877   39.1423 S   0  0  0  0  0  0  0  0  0  0  0  0
   40.2601   -7.8601   38.6271 C   0  0  0  0  0  0  0  0  0  0  0  0
   40.4519   -9.0051   37.6122 C   0  0  0  0  0  0  0  0  0  0  0  0
   41.5959   -8.7922   36.6519 N   0  3  2  0  0  0  0  0  0  0  0  0
   42.4233  -10.0398   36.4466 C   0  0  0  0  0  0  0  0  0  0  0  0
   43.5598   -9.7998   35.4331 C   0  0  0  0  0  0  0  0  0  0  0  0
   44.4389   -8.6280   35.9076 C   0  0  2  0  0  0  0  0  0  0  0  0
   43.5781   -7.3579   36.0323 C   0  0  0  0  0  0  0  0  0  0  0  0
   42.4379   -7.6002   37.0418 C   0  0  0  0  0  0  0  0  0  0  0  0
   45.4555   -8.4084   34.9856 F   0  0  0  0  0  0  0  0  0  0  0  0
   35.9576   -5.8658   39.3255 C   0  0  0  0  0  0  0  0  0  0  0  0
   36.3928   -5.5752   38.0374 F   0  0  0  0  0  0  0  0  0  0  0  0
   34.9254   -4.9725   39.5997 F   0  0  0  0  0  0  0  0  0  0  0  0
   35.3908   -7.1342   39.3025 F   0  0  0  0  0  0  0  0  0  0  0  0
   39.9048   -7.6324   44.7924 C   0  0  0  0  0  0  0  0  0  0  0  0
   40.3629   -7.9598   46.1947 N   0  3  0  0  0  0  0  0  0  0  0  0
   41.8263   -7.7045   46.4531 C   0  0  0  0  0  0  0  0  0  0  0  0
   42.1466   -6.2091   46.2256 C   0  0  0  0  0  0  0  0  0  0  0  0
   42.6447   -2.5841   42.5127 O   0  0  0  0  0  0  0  0  0  0  0  0
   52.3191   -2.7349   39.9469 C   0  0  0  0  0  0  0  0  0  0  0  0
   52.5666   -1.7405   40.8862 F   0  0  0  0  0  0  0  0  0  0  0  0
   52.7531   -3.9383   40.4944 F   0  0  0  0  0  0  0  0  0  0  0  0
   53.1230   -2.4722   38.8424 F   0  0  0  0  0  0  0  0  0  0  0  0
   44.2097   -3.5753   43.2695 H   0  0  0  0  0  0  0  0  0  0  0  0
   48.8061   -3.3964   37.0721 H   0  0  0  0  0  0  0  0  0  0  0  0
   51.1178   -3.3618   37.6131 H   0  0  0  0  0  0  0  0  0  0  0  0
   50.2086   -2.1529   41.4346 H   0  0  0  0  0  0  0  0  0  0  0  0
   47.1931   -2.8158   38.7054 H   0  0  0  0  0  0  0  0  0  0  0  0
   48.2991   -1.1466   42.8501 H   0  0  0  0  0  0  0  0  0  0  0  0
   48.6078   -2.7627   42.8041 H   0  0  0  0  0  0  0  0  0  0  0  0
   46.9381   -2.1873   44.4640 H   0  0  0  0  0  0  0  0  0  0  0  0
   46.3999   -3.2679   43.3515 H   0  0  0  0  0  0  0  0  0  0  0  0
   45.8447   -0.5539   43.3123 H   0  0  0  0  0  0  0  0  0  0  0  0
   44.5420   -0.7607   41.4590 H   0  0  0  0  0  0  0  0  0  0  0  0
   44.9163   -2.3499   41.4220 H   0  0  0  0  0  0  0  0  0  0  0  0
   46.3129   -1.1805   39.8824 H   0  0  0  0  0  0  0  0  0  0  0  0
   46.8293   -0.2038   41.0940 H   0  0  0  0  0  0  0  0  0  0  0  0
   43.7321   -0.8297   43.9068 H   0  0  0  0  0  0  0  0  0  0  0  0
   44.6370   -1.7485   44.9381 H   0  0  0  0  0  0  0  0  0  0  0  0
   42.3533   -2.6887   45.2659 H   0  0  0  0  0  0  0  0  0  0  0  0
   43.4408   -3.9672   45.3191 H   0  0  0  0  0  0  0  0  0  0  0  0
   37.8065   -3.9735   43.0012 H   0  0  0  0  0  0  0  0  0  0  0  0
   36.1652   -4.2449   41.3285 H   0  0  0  0  0  0  0  0  0  0  0  0
   39.9527   -7.0908   41.3865 H   0  0  0  0  0  0  0  0  0  0  0  0
   40.8564   -7.9964   39.4182 H   0  0  0  0  0  0  0  0  0  0  0  0
   40.4946   -6.9793   38.2158 H   0  0  0  0  0  0  0  0  0  0  0  0
   39.6087   -9.1023   37.0834 H   0  0  0  0  0  0  0  0  0  0  0  0
   40.6701   -9.8253   38.1410 H   0  0  0  0  0  0  0  0  0  0  0  0
   41.2298   -8.5881   35.8429 H   0  0  0  0  0  0  0  0  0  0  0  0
   41.8321  -10.7722   36.1089 H   0  0  0  0  0  0  0  0  0  0  0  0
   42.8329  -10.2937   37.3228 H   0  0  0  0  0  0  0  0  0  0  0  0
   43.1694   -9.5846   34.5380 H   0  0  0  0  0  0  0  0  0  0  0  0
   44.1201  -10.6251   35.3621 H   0  0  0  0  0  0  0  0  0  0  0  0
   44.8373   -8.8499   36.7976 H   0  0  0  0  0  0  0  0  0  0  0  0
   43.1915   -7.1274   35.1394 H   0  0  0  0  0  0  0  0  0  0  0  0
   44.1482   -6.6018   36.3538 H   0  0  0  0  0  0  0  0  0  0  0  0
   42.8309   -7.7606   37.9472 H   0  0  0  0  0  0  0  0  0  0  0  0
   41.8505   -6.7909   37.0492 H   0  0  0  0  0  0  0  0  0  0  0  0
   40.2528   -8.3216   44.1569 H   0  0  0  0  0  0  0  0  0  0  0  0
   38.9052   -7.6280   44.7644 H   0  0  0  0  0  0  0  0  0  0  0  0
   39.8578   -7.5055   46.8013 H   0  0  0  0  0  0  0  0  0  0  0  0
   40.1901   -8.8363   46.3719 H   0  0  0  0  0  0  0  0  0  0  0  0
   42.3766   -8.2626   45.8321 H   0  0  0  0  0  0  0  0  0  0  0  0
   42.0408   -7.9460   47.3995 H   0  0  0  0  0  0  0  0  0  0  0  0
   41.8744   -5.6940   47.0384 H   0  0  0  0  0  0  0  0  0  0  0  0
   43.1292   -6.1351   46.0552 H   0  0  0  0  0  0  0  0  0  0  0  0
   42.5958   -1.5935   42.3449 H   0  0  0  0  0  0  0  0  0  0  0  0
  1  2  2  0  0  0  0
  1  6  1  0  0  0  0
  1 51  1  0  0  0  0
  2  3  1  0  0  0  0
  2 52  1  0  0  0  0
  3  4  2  0  0  0  0
  3 46  1  0  0  0  0
  4  5  1  0  0  0  0
  4 53  1  0  0  0  0
  5  6  2  0  0  0  0
  5  7  1  0  0  0  0
  6 54  1  0  0  0  0
  7  8  1  0  0  0  0
  7 12  1  0  0  0  0
  8  9  1  0  0  0  0
  8 55  1  0  0  0  0
  8 56  1  0  0  0  0
  9 10  1  0  0  0  0
  9 57  1  0  0  0  0
  9 58  1  0  0  0  0
 10 11  1  0  0  0  0
 10 13  1  0  0  0  0
 10 59  1  0  0  0  0
 11 12  1  0  0  0  0
 11 60  1  0  0  0  0
 11 61  1  0  0  0  0
 12 62  1  0  0  0  0
 12 63  1  0  0  0  0
 13 14  1  0  0  0  0
 13 64  1  0  0  0  0
 13 65  1  0  0  0  0
 14 15  1  0  0  0  0
 14 45  1  0  0  0  0
 14 50  1  6  0  0  0
 15 16  1  0  0  0  0
 15 66  1  0  0  0  0
 15 67  1  0  0  0  0
 16 17  1  0  0  0  0
 16 20  1  0  0  0  0
 17 18  2  0  0  0  0
 17 44  1  0  0  0  0
 18 19  1  0  0  0  0
 18 41  1  0  0  0  0
 19 20  2  0  0  0  0
 19 21  1  0  0  0  0
 21 22  2  0  0  0  0
 21 26  1  0  0  0  0
 22 23  1  0  0  0  0
 22 68  1  0  0  0  0
 23 24  2  0  0  0  0
 23 69  1  0  0  0  0
 24 25  1  0  0  0  0
 24 37  1  0  0  0  0
 25 26  2  0  0  0  0
 25 27  1  0  0  0  0
 26 70  1  0  0  0  0
 27 28  1  0  0  0  0
 28 29  1  0  0  0  0
 28 71  1  0  0  0  0
 28 72  1  0  0  0  0
 29 30  1  0  0  0  0
 29 73  1  0  0  0  0
 29 74  1  0  0  0  0
 30 31  1  0  0  0  0
 30 35  1  0  0  0  0
 30 75  1  6  0  0  0
 31 32  1  0  0  0  0
 31 76  1  0  0  0  0
 31 77  1  0  0  0  0
 32 33  1  0  0  0  0
 32 78  1  0  0  0  0
 32 79  1  0  0  0  0
 33 34  1  0  0  0  0
 33 36  1  0  0  0  0
 33 80  1  1  0  0  0
 34 35  1  0  0  0  0
 34 81  1  0  0  0  0
 34 82  1  0  0  0  0
 35 83  1  0  0  0  0
 35 84  1  0  0  0  0
 37 38  1  0  0  0  0
 37 39  1  0  0  0  0
 37 40  1  0  0  0  0
 41 42  1  0  0  0  0
 41 85  1  0  0  0  0
 41 86  1  0  0  0  0
 42 43  1  0  0  0  0
 42 87  1  0  0  0  0
 42 88  1  0  0  0  0
 43 44  1  0  0  0  0
 43 89  1  0  0  0  0
 43 90  1  0  0  0  0
 44 91  1  0  0  0  0
 44 92  1  0  0  0  0
 45 93  1  0  0  0  0
 46 47  1  0  0  0  0
 46 48  1  0  0  0  0
 46 49  1  0  0  0  0
M  CHG  3  10   1  30   1  42   1
M  END
