CatS_352:1_D
 OpenBabel12041818463D

 85 90  0  0  1  0  0  0  0  0999 V2000
   45.2879   -2.0946   40.7698 C   0  0  0  0  0  0  0  0  0  0  0  0
   46.7725   -2.5140   40.6947 C   0  0  1  0  0  0  0  0  0  0  0  0
   46.9561   -3.4924   39.5156 C   0  0  0  0  0  0  0  0  0  0  0  0
   46.7928   -2.8104   38.2565 O   0  0  0  0  0  0  0  0  0  0  0  0
   47.7792   -1.7807   38.0581 C   0  0  0  0  0  0  0  0  0  0  0  0
   47.6952   -0.7116   39.1646 C   0  0  0  0  0  0  0  0  0  0  0  0
   47.7434   -1.3615   40.5299 N   0  3  1  0  0  0  0  0  0  0  0  0
   47.7054   -0.3802   41.6793 C   0  0  0  0  0  0  0  0  0  0  0  0
   47.8831   -1.0555   43.0534 C   0  0  0  0  0  0  0  0  0  0  0  0
   47.2988   -0.1812   44.1789 C   0  0  0  0  0  0  0  0  0  0  0  0
   46.0715   -0.5642   44.9036 N   0  0  0  0  0  0  0  0  0  0  0  0
   45.2160    0.1270   45.7104 C   0  0  0  0  0  0  0  0  0  0  0  0
   44.1446   -0.5875   46.0669 C   0  0  0  0  0  0  0  0  0  0  0  0
   44.3725   -1.8506   45.4694 C   0  0  0  0  0  0  0  0  0  0  0  0
   45.5002   -1.7859   44.7972 N   0  0  0  0  0  0  0  0  0  0  0  0
   43.5712   -3.0637   45.5109 C   0  0  0  0  0  0  0  0  0  0  0  0
   43.9369   -4.0513   46.4115 C   0  0  0  0  0  0  0  0  0  0  0  0
   43.2150   -5.2170   46.5177 C   0  0  0  0  0  0  0  0  0  0  0  0
   42.1175   -5.4239   45.7204 C   0  0  0  0  0  0  0  0  0  0  0  0
   41.7312   -4.4466   44.8055 C   0  0  0  0  0  0  0  0  0  0  0  0
   42.4588   -3.2619   44.7099 C   0  0  0  0  0  0  0  0  0  0  0  0
   40.5767   -4.7201   43.9869 C   0  0  0  0  0  0  0  0  0  0  0  0
   39.6275   -4.8999   43.2411 C   0  0  0  0  0  0  0  0  0  0  0  0
   38.5434   -5.0541   42.3062 C   0  0  0  0  0  0  0  0  0  0  0  0
   37.4996   -4.1399   42.2138 C   0  0  0  0  0  0  0  0  0  0  0  0
   36.5000   -4.3433   41.2954 C   0  0  0  0  0  0  0  0  0  0  0  0
   36.5220   -5.4459   40.4634 C   0  0  0  0  0  0  0  0  0  0  0  0
   37.5578   -6.3602   40.5564 C   0  0  0  0  0  0  0  0  0  0  0  0
   38.5608   -6.1631   41.4690 C   0  0  0  0  0  0  0  0  0  0  0  0
   37.6367   -7.5866   39.6584 C   0  0  0  0  0  0  0  0  0  0  0  0
   36.3349   -7.8940   38.8914 C   0  0  0  0  0  0  0  0  0  0  0  0
   35.7362   -6.6179   38.3646 N   0  3  1  0  0  0  0  0  0  0  0  0
   35.3872   -5.6436   39.4633 C   0  0  0  0  0  0  0  0  0  0  0  0
   36.5938   -5.9915   37.3026 C   0  0  0  0  0  0  0  0  0  0  0  0
   41.2167   -6.9089   45.8589 Cl  0  0  0  0  0  0  0  0  0  0  0  0
   43.0363   -0.0196   46.9521 C   0  0  0  0  0  0  0  0  0  0  0  0
   43.0586    1.4558   47.1070 N   0  0  0  0  0  0  0  0  0  0  0  0
   44.4459    1.8830   47.3874 C   0  0  0  0  0  0  0  0  0  0  0  0
   45.3812    1.5598   46.1975 C   0  0  0  0  0  0  0  0  0  0  0  0
   41.8277    2.0647   48.0018 S   0  0  0  0  0  0  0  0  0  0  0  0
   41.9397    3.4835   47.9983 O   0  0  0  0  0  0  0  0  0  0  0  0
   40.5826    1.7000   47.4174 O   0  0  0  0  0  0  0  0  0  0  0  0
   41.8755    1.4756   49.7236 C   0  0  0  0  0  0  0  0  0  0  0  0
   46.9879   -2.9385   41.5741 H   0  0  0  0  0  0  0  0  0  0  0  0
   44.8921   -2.1323   39.8522 H   0  0  0  0  0  0  0  0  0  0  0  0
   44.7916   -2.7157   41.3764 H   0  0  0  0  0  0  0  0  0  0  0  0
   45.2187   -1.1641   41.1294 H   0  0  0  0  0  0  0  0  0  0  0  0
   46.2780   -4.2240   39.5858 H   0  0  0  0  0  0  0  0  0  0  0  0
   47.8798   -3.8735   39.5555 H   0  0  0  0  0  0  0  0  0  0  0  0
   47.6271   -1.3476   37.1696 H   0  0  0  0  0  0  0  0  0  0  0  0
   48.6866   -2.1997   38.0911 H   0  0  0  0  0  0  0  0  0  0  0  0
   46.8397   -0.2027   39.0690 H   0  0  0  0  0  0  0  0  0  0  0  0
   48.4734   -0.0899   39.0748 H   0  0  0  0  0  0  0  0  0  0  0  0
   48.5692   -1.7475   40.5756 H   0  0  0  0  0  0  0  0  0  0  0  0
   46.8252    0.0943   41.6661 H   0  0  0  0  0  0  0  0  0  0  0  0
   48.4697    0.2529   41.5574 H   0  0  0  0  0  0  0  0  0  0  0  0
   48.8575   -1.2031   43.2231 H   0  0  0  0  0  0  0  0  0  0  0  0
   47.3953   -1.9284   43.0443 H   0  0  0  0  0  0  0  0  0  0  0  0
   47.1207    0.7162   43.7752 H   0  0  0  0  0  0  0  0  0  0  0  0
   47.9965   -0.2590   44.8911 H   0  0  0  0  0  0  0  0  0  0  0  0
   44.7385   -3.9142   46.9934 H   0  0  0  0  0  0  0  0  0  0  0  0
   43.4906   -5.9158   47.1778 H   0  0  0  0  0  0  0  0  0  0  0  0
   42.1773   -2.5539   44.0622 H   0  0  0  0  0  0  0  0  0  0  0  0
   37.4774   -3.3394   42.8127 H   0  0  0  0  0  0  0  0  0  0  0  0
   35.7485   -3.6870   41.2280 H   0  0  0  0  0  0  0  0  0  0  0  0
   39.3104   -6.8219   41.5330 H   0  0  0  0  0  0  0  0  0  0  0  0
   37.8634   -8.3782   40.2259 H   0  0  0  0  0  0  0  0  0  0  0  0
   38.3354   -7.3934   38.9696 H   0  0  0  0  0  0  0  0  0  0  0  0
   35.6838   -8.3396   39.5058 H   0  0  0  0  0  0  0  0  0  0  0  0
   36.5412   -8.5004   38.1235 H   0  0  0  0  0  0  0  0  0  0  0  0
   34.9536   -6.8550   37.9596 H   0  0  0  0  0  0  0  0  0  0  0  0
   35.1658   -4.7598   39.0511 H   0  0  0  0  0  0  0  0  0  0  0  0
   34.6092   -6.0233   39.9636 H   0  0  0  0  0  0  0  0  0  0  0  0
   36.0940   -5.9950   36.4365 H   0  0  0  0  0  0  0  0  0  0  0  0
   36.8163   -5.0510   37.5593 H   0  0  0  0  0  0  0  0  0  0  0  0
   37.4423   -6.5116   37.2050 H   0  0  0  0  0  0  0  0  0  0  0  0
   43.1194   -0.4314   47.8596 H   0  0  0  0  0  0  0  0  0  0  0  0
   42.1729   -0.2408   46.4987 H   0  0  0  0  0  0  0  0  0  0  0  0
   44.7762    1.4089   48.2036 H   0  0  0  0  0  0  0  0  0  0  0  0
   44.4497    2.8724   47.5323 H   0  0  0  0  0  0  0  0  0  0  0  0
   45.1751    2.1837   45.4437 H   0  0  0  0  0  0  0  0  0  0  0  0
   46.3244    1.6711   46.5105 H   0  0  0  0  0  0  0  0  0  0  0  0
   41.0168    1.0073   49.9315 H   0  0  0  0  0  0  0  0  0  0  0  0
   42.6413    0.8437   49.8433 H   0  0  0  0  0  0  0  0  0  0  0  0
   41.9948    2.2524   50.3420 H   0  0  0  0  0  0  0  0  0  0  0  0
  1  2  1  0  0  0  0
  1 45  1  0  0  0  0
  1 46  1  0  0  0  0
  1 47  1  0  0  0  0
  2  3  1  0  0  0  0
  2  7  1  0  0  0  0
  2 44  1  1  0  0  0
  3  4  1  0  0  0  0
  3 48  1  0  0  0  0
  3 49  1  0  0  0  0
  4  5  1  0  0  0  0
  5  6  1  0  0  0  0
  5 50  1  0  0  0  0
  5 51  1  0  0  0  0
  6  7  1  0  0  0  0
  6 52  1  0  0  0  0
  6 53  1  0  0  0  0
  7  8  1  0  0  0  0
  7 54  1  1  0  0  0
  8  9  1  0  0  0  0
  8 55  1  0  0  0  0
  8 56  1  0  0  0  0
  9 10  1  0  0  0  0
  9 57  1  0  0  0  0
  9 58  1  0  0  0  0
 10 11  1  0  0  0  0
 10 59  1  0  0  0  0
 10 60  1  0  0  0  0
 11 12  1  0  0  0  0
 11 15  1  0  0  0  0
 12 13  2  0  0  0  0
 12 39  1  0  0  0  0
 13 14  1  0  0  0  0
 13 36  1  0  0  0  0
 14 15  2  0  0  0  0
 14 16  1  0  0  0  0
 16 17  2  0  0  0  0
 16 21  1  0  0  0  0
 17 18  1  0  0  0  0
 17 61  1  0  0  0  0
 18 19  2  0  0  0  0
 18 62  1  0  0  0  0
 19 20  1  0  0  0  0
 19 35  1  0  0  0  0
 20 21  2  0  0  0  0
 20 22  1  0  0  0  0
 21 63  1  0  0  0  0
 22 23  3  0  0  0  0
 23 24  1  0  0  0  0
 24 25  2  0  0  0  0
 24 29  1  0  0  0  0
 25 26  1  0  0  0  0
 25 64  1  0  0  0  0
 26 27  2  0  0  0  0
 26 65  1  0  0  0  0
 27 28  1  0  0  0  0
 27 33  1  0  0  0  0
 28 29  2  0  0  0  0
 28 30  1  0  0  0  0
 29 66  1  0  0  0  0
 30 31  1  0  0  0  0
 30 67  1  0  0  0  0
 30 68  1  0  0  0  0
 31 32  1  0  0  0  0
 31 69  1  0  0  0  0
 31 70  1  0  0  0  0
 32 33  1  0  0  0  0
 32 34  1  0  0  0  0
 32 71  1  6  0  0  0
 33 72  1  0  0  0  0
 33 73  1  0  0  0  0
 34 74  1  0  0  0  0
 34 75  1  0  0  0  0
 34 76  1  0  0  0  0
 36 37  1  0  0  0  0
 36 77  1  0  0  0  0
 36 78  1  0  0  0  0
 37 38  1  0  0  0  0
 37 40  1  0  0  0  0
 38 39  1  0  0  0  0
 38 79  1  0  0  0  0
 38 80  1  0  0  0  0
 39 81  1  0  0  0  0
 39 82  1  0  0  0  0
 40 41  2  0  0  0  0
 40 42  2  0  0  0  0
 40 43  1  0  0  0  0
 43 83  1  0  0  0  0
 43 84  1  0  0  0  0
 43 85  1  0  0  0  0
M  CHG  2   7   1  32   1
M  END
