CatS_9_D
 OpenBabel12031813433D

102107  0  0  1  0  0  0  0  0999 V2000
  -11.1657   14.6867   -1.2638 C   0  0  0  0  0  0  0  0  0  0  0  0
  -10.1617   13.6337   -0.7538 C   0  0  0  0  0  0  0  0  0  0  0  0
   -8.7487   14.2417   -0.5858 C   0  0  0  0  0  0  0  0  0  0  0  0
   -7.6737   13.1927   -0.2358 C   0  0  0  0  0  0  0  0  0  0  0  0
   -7.6957   12.0397   -1.2578 C   0  0  0  0  0  0  0  0  0  0  0  0
   -9.0607   11.4027   -1.3198 N   0  3  1  0  0  0  0  0  0  0  0  0
  -10.1347   12.3997   -1.6858 C   0  0  0  0  0  0  0  0  0  0  0  0
   -9.0697   10.1687   -2.1888 C   0  0  0  0  0  0  0  0  0  0  0  0
   -7.6797    9.5517   -2.4658 C   0  0  0  0  0  0  0  0  0  0  0  0
   -7.7097    7.7577   -2.7568 S   0  0  0  0  0  0  0  0  0  0  0  0
   -6.4917    7.4397   -4.0398 C   0  0  0  0  0  0  0  0  0  0  0  0
   -6.3087    8.4317   -4.9758 C   0  0  0  0  0  0  0  0  0  0  0  0
   -5.3577    8.2967   -5.9708 C   0  0  0  0  0  0  0  0  0  0  0  0
   -4.5937    7.1457   -5.9988 C   0  0  0  0  0  0  0  0  0  0  0  0
   -4.7977    6.1477   -5.0768 C   0  0  0  0  0  0  0  0  0  0  0  0
   -5.7527    6.2647   -4.0878 C   0  0  0  0  0  0  0  0  0  0  0  0
   -5.8657    5.0687   -3.1418 C   0  0  0  0  0  0  0  0  0  0  0  0
   -6.9337    4.2567   -3.5058 F   0  0  0  0  0  0  0  0  0  0  0  0
   -6.0797    5.4557   -1.8208 F   0  0  0  0  0  0  0  0  0  0  0  0
   -4.7267    4.2727   -3.1238 F   0  0  0  0  0  0  0  0  0  0  0  0
   -5.1307    9.3137   -6.9798 C   0  0  0  0  0  0  0  0  0  0  0  0
   -6.0667    9.9567   -7.8238 C   0  0  0  0  0  0  0  0  0  0  0  0
   -5.3027   10.7417   -8.5868 C   0  0  0  0  0  0  0  0  0  0  0  0
   -3.9867   10.6737   -8.2638 N   0  0  0  0  0  0  0  0  0  0  0  0
   -3.9267    9.7557   -7.2768 N   0  0  0  0  0  0  0  0  0  0  0  0
   -2.8247   11.3797   -8.8208 C   0  0  0  0  0  0  0  0  0  0  0  0
   -2.2657   12.4917   -7.9118 C   0  0  0  0  0  0  0  0  0  0  0  0
   -3.3847   13.1557   -7.0788 C   0  0  0  0  0  0  0  0  0  0  0  0
   -2.9067   14.1917   -6.0878 N   0  3  2  0  0  0  0  0  0  0  0  0
   -2.8517   15.5937   -6.6478 C   0  0  0  0  0  0  0  0  0  0  0  0
   -2.5527   16.6097   -5.5268 C   0  0  0  0  0  0  0  0  0  0  0  0
   -1.2227   16.2467   -4.8368 C   0  0  2  0  0  0  0  0  0  0  0  0
   -1.3147   14.8217   -4.2478 C   0  0  0  0  0  0  0  0  0  0  0  0
   -1.6407   13.8037   -5.3618 C   0  0  0  0  0  0  0  0  0  0  0  0
   -0.8927   17.3057   -3.8698 N   0  0  0  0  0  0  0  0  0  0  0  0
   -1.8677   17.9557   -2.9848 C   0  0  0  0  0  0  0  0  0  0  0  0
   -0.9167   18.6447   -1.9898 C   0  0  0  0  0  0  0  0  0  0  0  0
    0.4093   18.8497   -2.7398 C   0  0  0  0  0  0  0  0  0  0  0  0
    0.3613   17.7677   -3.7848 C   0  0  0  0  0  0  0  0  0  0  0  0
    1.3213   17.3807   -4.4358 O   0  0  0  0  0  0  0  0  0  0  0  0
   -5.9017   11.5727   -9.7038 C   0  0  0  0  0  0  0  0  0  0  0  0
   -7.2567   10.9647  -10.1308 C   0  0  0  0  0  0  0  0  0  0  0  0
   -8.1717   10.7917   -8.9818 N   0  0  0  0  0  0  0  0  0  0  0  0
   -7.5767    9.8387   -8.0128 C   0  0  0  0  0  0  0  0  0  0  0  0
   -9.7477   10.5637   -9.3248 S   0  0  0  0  0  0  0  0  0  0  0  0
  -10.1777   11.6247  -10.1778 O   0  0  0  0  0  0  0  0  0  0  0  0
  -10.4527   10.3747   -8.0988 O   0  0  0  0  0  0  0  0  0  0  0  0
   -9.8407    9.0167  -10.2588 C   0  0  0  0  0  0  0  0  0  0  0  0
  -10.6587   13.1837    0.6302 C   0  0  0  0  0  0  0  0  0  0  0  0
  -11.8817   14.8137   -0.5768 H   0  0  0  0  0  0  0  0  0  0  0  0
  -10.6947   15.5547   -1.4228 H   0  0  0  0  0  0  0  0  0  0  0  0
  -11.5737   14.3757   -2.1218 H   0  0  0  0  0  0  0  0  0  0  0  0
   -8.7807   14.9247    0.1442 H   0  0  0  0  0  0  0  0  0  0  0  0
   -8.4937   14.6457   -1.4638 H   0  0  0  0  0  0  0  0  0  0  0  0
   -7.8527   12.8287    0.6792 H   0  0  0  0  0  0  0  0  0  0  0  0
   -6.7747   13.6287   -0.2588 H   0  0  0  0  0  0  0  0  0  0  0  0
   -7.0217   11.3507   -0.9908 H   0  0  0  0  0  0  0  0  0  0  0  0
   -7.4747   12.4087   -2.1598 H   0  0  0  0  0  0  0  0  0  0  0  0
   -9.2437   11.1137   -0.4778 H   0  0  0  0  0  0  0  0  0  0  0  0
   -9.9777   12.7097   -2.6228 H   0  0  0  0  0  0  0  0  0  0  0  0
  -11.0147   11.9347   -1.5898 H   0  0  0  0  0  0  0  0  0  0  0  0
   -9.4857   10.4087   -3.0658 H   0  0  0  0  0  0  0  0  0  0  0  0
   -9.5847    9.4767   -1.6828 H   0  0  0  0  0  0  0  0  0  0  0  0
   -7.0907    9.7347   -1.6778 H   0  0  0  0  0  0  0  0  0  0  0  0
   -7.3387    9.9737   -3.3058 H   0  0  0  0  0  0  0  0  0  0  0  0
   -6.8687    9.2587   -4.9358 H   0  0  0  0  0  0  0  0  0  0  0  0
   -3.8857    7.0377   -6.6968 H   0  0  0  0  0  0  0  0  0  0  0  0
   -4.2427    5.3177   -5.1238 H   0  0  0  0  0  0  0  0  0  0  0  0
   -3.0927   11.7897   -9.6928 H   0  0  0  0  0  0  0  0  0  0  0  0
   -2.0967   10.7007   -8.9228 H   0  0  0  0  0  0  0  0  0  0  0  0
   -1.8227   13.1857   -8.4788 H   0  0  0  0  0  0  0  0  0  0  0  0
   -1.6077   12.0797   -7.2808 H   0  0  0  0  0  0  0  0  0  0  0  0
   -3.8667   12.4387   -6.5748 H   0  0  0  0  0  0  0  0  0  0  0  0
   -3.9707   13.6397   -7.7298 H   0  0  0  0  0  0  0  0  0  0  0  0
   -3.5567   14.2217   -5.4468 H   0  0  0  0  0  0  0  0  0  0  0  0
   -3.7307   15.8157   -7.0708 H   0  0  0  0  0  0  0  0  0  0  0  0
   -2.1237   15.6417   -7.3318 H   0  0  0  0  0  0  0  0  0  0  0  0
   -3.2927   16.5937   -4.8548 H   0  0  0  0  0  0  0  0  0  0  0  0
   -2.4797   17.5257   -5.9208 H   0  0  0  0  0  0  0  0  0  0  0  0
   -0.4597   16.2117   -5.4828 H   0  0  0  0  0  0  0  0  0  0  0  0
   -2.0327   14.7957   -3.5518 H   0  0  0  0  0  0  0  0  0  0  0  0
   -0.4347   14.5817   -3.8358 H   0  0  0  0  0  0  0  0  0  0  0  0
   -0.8827   13.7737   -6.0138 H   0  0  0  0  0  0  0  0  0  0  0  0
   -1.7727   12.9047   -4.9438 H   0  0  0  0  0  0  0  0  0  0  0  0
   -2.4617   17.2907   -2.5338 H   0  0  0  0  0  0  0  0  0  0  0  0
   -2.5067   18.5717   -3.4468 H   0  0  0  0  0  0  0  0  0  0  0  0
   -0.7777   18.0677   -1.1848 H   0  0  0  0  0  0  0  0  0  0  0  0
   -1.2917   19.5137   -1.6668 H   0  0  0  0  0  0  0  0  0  0  0  0
    1.1933   18.7337   -2.1308 H   0  0  0  0  0  0  0  0  0  0  0  0
    0.5133   19.7677   -3.1218 H   0  0  0  0  0  0  0  0  0  0  0  0
   -5.2767   11.5837  -10.4848 H   0  0  0  0  0  0  0  0  0  0  0  0
   -6.0457   12.5087   -9.3818 H   0  0  0  0  0  0  0  0  0  0  0  0
   -7.0927   10.0727  -10.5538 H   0  0  0  0  0  0  0  0  0  0  0  0
   -7.6887   11.5937  -10.7768 H   0  0  0  0  0  0  0  0  0  0  0  0
   -8.0117    9.9867   -7.1248 H   0  0  0  0  0  0  0  0  0  0  0  0
   -7.7367    8.9267   -8.3898 H   0  0  0  0  0  0  0  0  0  0  0  0
  -10.3627    8.3477   -9.7298 H   0  0  0  0  0  0  0  0  0  0  0  0
  -10.2917    9.1777  -11.1358 H   0  0  0  0  0  0  0  0  0  0  0  0
   -8.9177    8.6687  -10.4258 H   0  0  0  0  0  0  0  0  0  0  0  0
  -10.8477   12.2027    0.6052 H   0  0  0  0  0  0  0  0  0  0  0  0
   -9.9587   13.3747    1.3192 H   0  0  0  0  0  0  0  0  0  0  0  0
  -11.4927   13.6827    0.8672 H   0  0  0  0  0  0  0  0  0  0  0  0
  1  2  1  0  0  0  0
  1 50  1  0  0  0  0
  1 51  1  0  0  0  0
  1 52  1  0  0  0  0
  2  3  1  0  0  0  0
  2  7  1  0  0  0  0
  2 49  1  0  0  0  0
  3  4  1  0  0  0  0
  3 53  1  0  0  0  0
  3 54  1  0  0  0  0
  4  5  1  0  0  0  0
  4 55  1  0  0  0  0
  4 56  1  0  0  0  0
  5  6  1  0  0  0  0
  5 57  1  0  0  0  0
  5 58  1  0  0  0  0
  6  7  1  0  0  0  0
  6  8  1  0  0  0  0
  6 59  1  1  0  0  0
  7 60  1  0  0  0  0
  7 61  1  0  0  0  0
  8  9  1  0  0  0  0
  8 62  1  0  0  0  0
  8 63  1  0  0  0  0
  9 10  1  0  0  0  0
  9 64  1  0  0  0  0
  9 65  1  0  0  0  0
 10 11  1  0  0  0  0
 11 12  2  0  0  0  0
 11 16  1  0  0  0  0
 12 13  1  0  0  0  0
 12 66  1  0  0  0  0
 13 14  2  0  0  0  0
 13 21  1  0  0  0  0
 14 15  1  0  0  0  0
 14 67  1  0  0  0  0
 15 16  2  0  0  0  0
 15 68  1  0  0  0  0
 16 17  1  0  0  0  0
 17 18  1  0  0  0  0
 17 19  1  0  0  0  0
 17 20  1  0  0  0  0
 21 22  1  0  0  0  0
 21 25  2  0  0  0  0
 22 23  2  0  0  0  0
 22 44  1  0  0  0  0
 23 24  1  0  0  0  0
 23 41  1  0  0  0  0
 24 25  1  0  0  0  0
 24 26  1  0  0  0  0
 26 27  1  0  0  0  0
 26 69  1  0  0  0  0
 26 70  1  0  0  0  0
 27 28  1  0  0  0  0
 27 71  1  0  0  0  0
 27 72  1  0  0  0  0
 28 29  1  0  0  0  0
 28 73  1  0  0  0  0
 28 74  1  0  0  0  0
 29 30  1  0  0  0  0
 29 34  1  0  0  0  0
 29 75  1  1  0  0  0
 30 31  1  0  0  0  0
 30 76  1  0  0  0  0
 30 77  1  0  0  0  0
 31 32  1  0  0  0  0
 31 78  1  0  0  0  0
 31 79  1  0  0  0  0
 32 33  1  0  0  0  0
 32 35  1  0  0  0  0
 32 80  1  6  0  0  0
 33 34  1  0  0  0  0
 33 81  1  0  0  0  0
 33 82  1  0  0  0  0
 34 83  1  0  0  0  0
 34 84  1  0  0  0  0
 35 36  1  0  0  0  0
 35 39  1  0  0  0  0
 36 37  1  0  0  0  0
 36 85  1  0  0  0  0
 36 86  1  0  0  0  0
 37 38  1  0  0  0  0
 37 87  1  0  0  0  0
 37 88  1  0  0  0  0
 38 39  1  0  0  0  0
 38 89  1  0  0  0  0
 38 90  1  0  0  0  0
 39 40  2  0  0  0  0
 41 42  1  0  0  0  0
 41 91  1  0  0  0  0
 41 92  1  0  0  0  0
 42 43  1  0  0  0  0
 42 93  1  0  0  0  0
 42 94  1  0  0  0  0
 43 44  1  0  0  0  0
 43 45  1  0  0  0  0
 44 95  1  0  0  0  0
 44 96  1  0  0  0  0
 45 46  2  0  0  0  0
 45 47  2  0  0  0  0
 45 48  1  0  0  0  0
 48 97  1  0  0  0  0
 48 98  1  0  0  0  0
 48 99  1  0  0  0  0
 49100  1  0  0  0  0
 49101  1  0  0  0  0
 49102  1  0  0  0  0
M  CHG  2   6   1  29   1
M  END
