CatS_253_D
 OpenBabel12031813433D

 90 94  0  0  1  0  0  0  0  0999 V2000
   -9.7814    8.5003  -10.5613 C   0  0  0  0  0  0  0  0  0  0  0  0
   -9.8234   10.0883   -9.6923 S   0  0  0  0  0  0  0  0  0  0  0  0
  -10.2814   11.0903  -10.5993 O   0  0  0  0  0  0  0  0  0  0  0  0
  -10.5534    9.8973   -8.4793 O   0  0  0  0  0  0  0  0  0  0  0  0
   -8.2754   10.4213   -9.3123 N   0  0  0  0  0  0  0  0  0  0  0  0
   -7.3274   10.6033  -10.4323 C   0  0  0  0  0  0  0  0  0  0  0  0
   -6.0634   11.3723   -9.9793 C   0  0  0  0  0  0  0  0  0  0  0  0
   -5.4744   10.7293   -8.7363 C   0  0  0  0  0  0  0  0  0  0  0  0
   -6.1914    9.9023   -7.9723 C   0  0  0  0  0  0  0  0  0  0  0  0
   -5.2774    9.5023   -6.9693 C   0  0  0  0  0  0  0  0  0  0  0  0
   -4.1314   10.1153   -7.1823 N   0  0  0  0  0  0  0  0  0  0  0  0
   -4.2084   10.9043   -8.2753 N   0  0  0  0  0  0  0  0  0  0  0  0
   -3.1244   11.7723   -8.7523 C   0  0  0  0  0  0  0  0  0  0  0  0
   -3.0164   13.0743   -7.9323 C   0  0  2  0  0  0  0  0  0  0  0  0
   -2.5024   12.7943   -6.5033 C   0  0  0  0  0  0  0  0  0  0  0  0
   -1.3024   13.6373   -6.1383 N   0  3  0  0  0  0  0  0  0  0  0  0
   -1.4034   15.0383   -6.6923 C   0  0  0  0  0  0  0  0  0  0  0  0
   -2.4444   15.8753   -5.9193 C   0  0  0  0  0  0  0  0  0  0  0  0
   -2.0894   15.9023   -4.4213 C   0  0  0  0  0  0  0  0  0  0  0  0
   -2.0474   14.4643   -3.8733 C   0  0  0  0  0  0  0  0  0  0  0  0
   -1.0104   13.6333   -4.6563 C   0  0  0  0  0  0  0  0  0  0  0  0
   -4.2944   13.7263   -7.8723 O   0  0  0  0  0  0  0  0  0  0  0  0
   -5.4694    8.5643   -5.8773 C   0  0  0  0  0  0  0  0  0  0  0  0
   -4.5764    7.5243   -5.7013 C   0  0  0  0  0  0  0  0  0  0  0  0
   -4.7294    6.6403   -4.6593 C   0  0  0  0  0  0  0  0  0  0  0  0
   -5.7704    6.7583   -3.7603 C   0  0  0  0  0  0  0  0  0  0  0  0
   -6.6544    7.8163   -3.9313 C   0  0  0  0  0  0  0  0  0  0  0  0
   -6.5104    8.7013   -4.9783 C   0  0  0  0  0  0  0  0  0  0  0  0
   -8.0074    8.1093   -2.7813 S   0  0  0  0  0  0  0  0  0  0  0  0
   -7.8094    9.8203   -2.2113 C   0  0  0  0  0  0  0  0  0  0  0  0
   -8.5794   10.7903   -3.1353 C   0  0  0  0  0  0  0  0  0  0  0  0
   -8.8214   12.1433   -2.5033 N   0  3  1  0  0  0  0  0  0  0  0  0
  -10.2774   12.5063   -2.3343 C   0  0  0  0  0  0  0  0  0  0  0  0
  -10.4584   13.9503   -1.8183 C   0  0  0  0  0  0  0  0  0  0  0  0
   -9.6534   14.1663   -0.5203 C   0  0  2  0  0  0  0  0  0  0  0  0
   -8.1654   13.8183   -0.7303 C   0  0  0  0  0  0  0  0  0  0  0  0
   -8.0284   12.3673   -1.2373 C   0  0  0  0  0  0  0  0  0  0  0  0
  -10.2344   13.2743    0.5557 C   0  0  0  0  0  0  0  0  0  0  0  0
   -9.5534   12.5063    1.2207 O   0  0  0  0  0  0  0  0  0  0  0  0
  -11.5604   13.4153    0.6937 N   0  0  0  0  0  0  0  0  0  0  0  0
   -5.8404    5.7163   -2.6433 C   0  0  0  0  0  0  0  0  0  0  0  0
   -5.0514    4.6153   -2.9563 F   0  0  0  0  0  0  0  0  0  0  0  0
   -5.3814    6.2253   -1.4323 F   0  0  0  0  0  0  0  0  0  0  0  0
   -7.1284    5.2413   -2.4053 F   0  0  0  0  0  0  0  0  0  0  0  0
   -7.6484    9.5663   -8.2723 C   0  0  0  0  0  0  0  0  0  0  0  0
   -2.3594   13.6733   -8.3893 H   0  0  0  0  0  0  0  0  0  0  0  0
   -8.8344    8.1833  -10.6163 H   0  0  0  0  0  0  0  0  0  0  0  0
  -10.3334    7.8293  -10.0663 H   0  0  0  0  0  0  0  0  0  0  0  0
  -10.1544    8.6113  -11.4833 H   0  0  0  0  0  0  0  0  0  0  0  0
   -7.7784   11.1153  -11.1633 H   0  0  0  0  0  0  0  0  0  0  0  0
   -7.0454    9.7003  -10.7573 H   0  0  0  0  0  0  0  0  0  0  0  0
   -6.3064   12.3213   -9.7803 H   0  0  0  0  0  0  0  0  0  0  0  0
   -5.3844   11.3423  -10.7133 H   0  0  0  0  0  0  0  0  0  0  0  0
   -3.2934   12.0053   -9.7103 H   0  0  0  0  0  0  0  0  0  0  0  0
   -2.2634   11.2743   -8.6473 H   0  0  0  0  0  0  0  0  0  0  0  0
   -2.2504   11.8293   -6.4363 H   0  0  0  0  0  0  0  0  0  0  0  0
   -3.2374   13.0283   -5.8673 H   0  0  0  0  0  0  0  0  0  0  0  0
   -0.5834   13.2553   -6.5473 H   0  0  0  0  0  0  0  0  0  0  0  0
   -1.6704   14.9913   -7.6553 H   0  0  0  0  0  0  0  0  0  0  0  0
   -0.5114   15.4803   -6.5963 H   0  0  0  0  0  0  0  0  0  0  0  0
   -3.3514   15.4723   -6.0403 H   0  0  0  0  0  0  0  0  0  0  0  0
   -2.4414   16.8103   -6.2733 H   0  0  0  0  0  0  0  0  0  0  0  0
   -2.7774   16.4303   -3.9243 H   0  0  0  0  0  0  0  0  0  0  0  0
   -1.1924   16.3283   -4.3003 H   0  0  0  0  0  0  0  0  0  0  0  0
   -2.9504   14.0463   -3.9673 H   0  0  0  0  0  0  0  0  0  0  0  0
   -1.7864   14.4883   -2.9083 H   0  0  0  0  0  0  0  0  0  0  0  0
   -0.0994   14.0163   -4.5023 H   0  0  0  0  0  0  0  0  0  0  0  0
   -1.0564   12.6883   -4.3303 H   0  0  0  0  0  0  0  0  0  0  0  0
   -4.4484   14.1483   -6.9723 H   0  0  0  0  0  0  0  0  0  0  0  0
   -3.8114    7.4143   -6.3363 H   0  0  0  0  0  0  0  0  0  0  0  0
   -4.0724    5.8943   -4.5513 H   0  0  0  0  0  0  0  0  0  0  0  0
   -7.1644    9.4493   -5.0873 H   0  0  0  0  0  0  0  0  0  0  0  0
   -6.8384   10.0603   -2.2153 H   0  0  0  0  0  0  0  0  0  0  0  0
   -8.1764    9.8983   -1.2853 H   0  0  0  0  0  0  0  0  0  0  0  0
   -9.4634   10.3813   -3.3633 H   0  0  0  0  0  0  0  0  0  0  0  0
   -8.0174   10.9383   -3.9483 H   0  0  0  0  0  0  0  0  0  0  0  0
   -8.4824   12.7453   -3.0993 H   0  0  0  0  0  0  0  0  0  0  0  0
  -10.6954   11.8733   -1.6823 H   0  0  0  0  0  0  0  0  0  0  0  0
  -10.7184   12.4423   -3.2293 H   0  0  0  0  0  0  0  0  0  0  0  0
  -11.4274   14.1193   -1.6393 H   0  0  0  0  0  0  0  0  0  0  0  0
  -10.1234   14.5863   -2.5143 H   0  0  0  0  0  0  0  0  0  0  0  0
   -9.7134   15.1273   -0.2523 H   0  0  0  0  0  0  0  0  0  0  0  0
   -7.6754   13.9163    0.1367 H   0  0  0  0  0  0  0  0  0  0  0  0
   -7.7754   14.4403   -1.4093 H   0  0  0  0  0  0  0  0  0  0  0  0
   -7.0644   12.1743   -1.4183 H   0  0  0  0  0  0  0  0  0  0  0  0
   -8.3864   11.7563   -0.5323 H   0  0  0  0  0  0  0  0  0  0  0  0
  -12.0124   13.9783    0.1917 H   0  0  0  0  0  0  0  0  0  0  0  0
  -11.9854   12.9343    1.2957 H   0  0  0  0  0  0  0  0  0  0  0  0
   -7.6964    8.6153   -8.5763 H   0  0  0  0  0  0  0  0  0  0  0  0
   -8.1574    9.7283   -7.4263 H   0  0  0  0  0  0  0  0  0  0  0  0
  1  2  1  0  0  0  0
  1 47  1  0  0  0  0
  1 48  1  0  0  0  0
  1 49  1  0  0  0  0
  2  3  2  0  0  0  0
  2  4  2  0  0  0  0
  2  5  1  0  0  0  0
  5  6  1  0  0  0  0
  5 45  1  0  0  0  0
  6  7  1  0  0  0  0
  6 50  1  0  0  0  0
  6 51  1  0  0  0  0
  7  8  1  0  0  0  0
  7 52  1  0  0  0  0
  7 53  1  0  0  0  0
  8  9  2  0  0  0  0
  8 12  1  0  0  0  0
  9 10  1  0  0  0  0
  9 45  1  0  0  0  0
 10 11  2  0  0  0  0
 10 23  1  0  0  0  0
 11 12  1  0  0  0  0
 12 13  1  0  0  0  0
 13 14  1  0  0  0  0
 13 54  1  0  0  0  0
 13 55  1  0  0  0  0
 14 15  1  0  0  0  0
 14 22  1  0  0  0  0
 14 46  1  6  0  0  0
 15 16  1  0  0  0  0
 15 56  1  0  0  0  0
 15 57  1  0  0  0  0
 16 17  1  0  0  0  0
 16 21  1  0  0  0  0
 16 58  1  0  0  0  0
 17 18  1  0  0  0  0
 17 59  1  0  0  0  0
 17 60  1  0  0  0  0
 18 19  1  0  0  0  0
 18 61  1  0  0  0  0
 18 62  1  0  0  0  0
 19 20  1  0  0  0  0
 19 63  1  0  0  0  0
 19 64  1  0  0  0  0
 20 21  1  0  0  0  0
 20 65  1  0  0  0  0
 20 66  1  0  0  0  0
 21 67  1  0  0  0  0
 21 68  1  0  0  0  0
 22 69  1  0  0  0  0
 23 24  2  0  0  0  0
 23 28  1  0  0  0  0
 24 25  1  0  0  0  0
 24 70  1  0  0  0  0
 25 26  2  0  0  0  0
 25 71  1  0  0  0  0
 26 27  1  0  0  0  0
 26 41  1  0  0  0  0
 27 28  2  0  0  0  0
 27 29  1  0  0  0  0
 28 72  1  0  0  0  0
 29 30  1  0  0  0  0
 30 31  1  0  0  0  0
 30 73  1  0  0  0  0
 30 74  1  0  0  0  0
 31 32  1  0  0  0  0
 31 75  1  0  0  0  0
 31 76  1  0  0  0  0
 32 33  1  0  0  0  0
 32 37  1  0  0  0  0
 32 77  1  6  0  0  0
 33 34  1  0  0  0  0
 33 78  1  0  0  0  0
 33 79  1  0  0  0  0
 34 35  1  0  0  0  0
 34 80  1  0  0  0  0
 34 81  1  0  0  0  0
 35 36  1  0  0  0  0
 35 38  1  0  0  0  0
 35 82  1  1  0  0  0
 36 37  1  0  0  0  0
 36 83  1  0  0  0  0
 36 84  1  0  0  0  0
 37 85  1  0  0  0  0
 37 86  1  0  0  0  0
 38 39  2  0  0  0  0
 38 40  1  0  0  0  0
 40 87  1  0  0  0  0
 40 88  1  0  0  0  0
 41 42  1  0  0  0  0
 41 43  1  0  0  0  0
 41 44  1  0  0  0  0
 45 89  1  0  0  0  0
 45 90  1  0  0  0  0
M  CHG  2  16   1  32   1
M  END
