CatS_172_D
 OpenBabel12031813433D

 90 94  0  0  1  0  0  0  0  0999 V2000
   -9.9275    7.3629  -17.6965 C   0  0  0  0  0  0  0  0  0  0  0  0
   -9.6795    7.9009  -16.2785 C   0  0  2  0  0  0  0  0  0  0  0  0
  -10.6755    9.0469  -15.9805 C   0  0  0  0  0  0  0  0  0  0  0  0
  -10.1225   10.0649  -14.9525 C   0  0  0  0  0  0  0  0  0  0  0  0
   -9.0935    9.4409  -14.0435 N   0  3  1  0  0  0  0  0  0  0  0  0
   -7.8785    8.9229  -14.7805 C   0  0  0  0  0  0  0  0  0  0  0  0
   -8.2255    8.4099  -16.1985 C   0  0  0  0  0  0  0  0  0  0  0  0
   -8.7505   10.2739  -12.8295 C   0  0  0  0  0  0  0  0  0  0  0  0
   -8.5575    9.4589  -11.5325 C   0  0  1  0  0  0  0  0  0  0  0  0
   -8.6875   10.3709  -10.2965 C   0  0  0  0  0  0  0  0  0  0  0  0
   -7.5975   10.1449   -9.3365 N   0  0  0  0  0  0  0  0  0  0  0  0
   -6.3535   10.6869   -9.2585 C   0  0  0  0  0  0  0  0  0  0  0  0
   -5.6465   10.2099   -8.2335 C   0  0  0  0  0  0  0  0  0  0  0  0
   -6.5295    9.2979   -7.6155 C   0  0  0  0  0  0  0  0  0  0  0  0
   -7.6645    9.2969   -8.2835 N   0  0  0  0  0  0  0  0  0  0  0  0
   -6.2895    8.5029   -6.4255 C   0  0  0  0  0  0  0  0  0  0  0  0
   -5.2145    7.6359   -6.3675 C   0  0  0  0  0  0  0  0  0  0  0  0
   -5.0165    6.8459   -5.2595 C   0  0  0  0  0  0  0  0  0  0  0  0
   -5.8645    6.9049   -4.1705 C   0  0  0  0  0  0  0  0  0  0  0  0
   -6.9165    7.8079   -4.2145 C   0  0  0  0  0  0  0  0  0  0  0  0
   -7.1285    8.5839   -5.3295 C   0  0  0  0  0  0  0  0  0  0  0  0
   -8.0495    8.0249   -2.8325 S   0  0  0  0  0  0  0  0  0  0  0  0
   -8.3225    9.8139   -2.7035 C   0  0  0  0  0  0  0  0  0  0  0  0
   -8.5915   10.2429   -1.2495 C   0  0  0  0  0  0  0  0  0  0  0  0
   -9.0755   11.6679   -1.1545 N   0  3  0  0  0  0  0  0  0  0  0  0
   -7.9565   12.6769   -0.9955 C   0  0  0  0  0  0  0  0  0  0  0  0
   -8.4215   14.0039   -0.3495 C   0  0  0  0  0  0  0  0  0  0  0  0
   -9.8775   14.3179   -0.7385 C   0  0  0  0  0  0  0  0  0  0  0  0
  -10.8395   13.2229   -0.2175 C   0  0  0  0  0  0  0  0  0  0  0  0
  -10.1615   11.8339   -0.1225 C   0  0  0  0  0  0  0  0  0  0  0  0
  -10.2425   15.5549   -0.2195 F   0  0  0  0  0  0  0  0  0  0  0  0
   -9.9745   14.4189   -2.1225 F   0  0  0  0  0  0  0  0  0  0  0  0
   -5.5785    5.9649   -3.0025 C   0  0  0  0  0  0  0  0  0  0  0  0
   -6.7145    5.3319   -2.5035 F   0  0  0  0  0  0  0  0  0  0  0  0
   -5.0145    6.6629   -1.9395 F   0  0  0  0  0  0  0  0  0  0  0  0
   -4.6825    4.9679   -3.3685 F   0  0  0  0  0  0  0  0  0  0  0  0
   -4.2445   10.6969   -7.8895 C   0  0  0  0  0  0  0  0  0  0  0  0
   -3.5965   11.5419   -8.9175 N   0  0  0  0  0  0  0  0  0  0  0  0
   -4.5935   12.4699   -9.4955 C   0  0  0  0  0  0  0  0  0  0  0  0
   -5.7675   11.7369  -10.1865 C   0  0  0  0  0  0  0  0  0  0  0  0
   -2.1415   12.1599   -8.5185 S   0  0  0  0  0  0  0  0  0  0  0  0
   -1.8005   13.1179   -9.5195 O   0  0  0  0  0  0  0  0  0  0  0  0
   -1.2415   11.0669   -8.3435 O   0  0  0  0  0  0  0  0  0  0  0  0
   -2.2975   13.0309   -6.9335 C   0  0  0  0  0  0  0  0  0  0  0  0
   -9.4985    8.3799  -11.4465 O   0  0  0  0  0  0  0  0  0  0  0  0
   -9.8795    6.8399  -15.3325 O   0  0  0  0  0  0  0  0  0  0  0  0
   -7.6375    9.0689  -11.5565 H   0  0  0  0  0  0  0  0  0  0  0  0
  -10.1715    6.3949  -17.6395 H   0  0  0  0  0  0  0  0  0  0  0  0
  -10.6715    7.8739  -18.1265 H   0  0  0  0  0  0  0  0  0  0  0  0
   -9.0985    7.4699  -18.2465 H   0  0  0  0  0  0  0  0  0  0  0  0
  -11.5215    8.6539  -15.6225 H   0  0  0  0  0  0  0  0  0  0  0  0
  -10.8345    9.5399  -16.8365 H   0  0  0  0  0  0  0  0  0  0  0  0
  -10.8795   10.4119  -14.3995 H   0  0  0  0  0  0  0  0  0  0  0  0
   -9.6795   10.8069  -15.4575 H   0  0  0  0  0  0  0  0  0  0  0  0
   -9.5035    8.6969  -13.7145 H   0  0  0  0  0  0  0  0  0  0  0  0
   -7.4775    8.1729  -14.2545 H   0  0  0  0  0  0  0  0  0  0  0  0
   -7.2345    9.6819  -14.8805 H   0  0  0  0  0  0  0  0  0  0  0  0
   -8.1045    9.1549  -16.8545 H   0  0  0  0  0  0  0  0  0  0  0  0
   -7.6155    7.6469  -16.4115 H   0  0  0  0  0  0  0  0  0  0  0  0
   -9.4875   10.9329  -12.6825 H   0  0  0  0  0  0  0  0  0  0  0  0
   -7.8725   10.7129  -13.0235 H   0  0  0  0  0  0  0  0  0  0  0  0
   -9.5615   10.1869   -9.8465 H   0  0  0  0  0  0  0  0  0  0  0  0
   -8.6385   11.3209  -10.6035 H   0  0  0  0  0  0  0  0  0  0  0  0
   -4.5765    7.5839   -7.1355 H   0  0  0  0  0  0  0  0  0  0  0  0
   -4.2415    6.2139   -5.2415 H   0  0  0  0  0  0  0  0  0  0  0  0
   -7.9025    9.2169   -5.3485 H   0  0  0  0  0  0  0  0  0  0  0  0
   -9.1085   10.0649   -3.2695 H   0  0  0  0  0  0  0  0  0  0  0  0
   -7.4955   10.2799   -3.0185 H   0  0  0  0  0  0  0  0  0  0  0  0
   -7.7465   10.1509   -0.7235 H   0  0  0  0  0  0  0  0  0  0  0  0
   -9.3105    9.6509   -0.8835 H   0  0  0  0  0  0  0  0  0  0  0  0
   -9.4795   11.8539   -1.9515 H   0  0  0  0  0  0  0  0  0  0  0  0
   -7.5745   12.8759   -1.8975 H   0  0  0  0  0  0  0  0  0  0  0  0
   -7.2765   12.2719   -0.3835 H   0  0  0  0  0  0  0  0  0  0  0  0
   -7.8285   14.7469   -0.6605 H   0  0  0  0  0  0  0  0  0  0  0  0
   -8.3675   13.9129    0.6445 H   0  0  0  0  0  0  0  0  0  0  0  0
  -11.6215   13.1599   -0.8375 H   0  0  0  0  0  0  0  0  0  0  0  0
  -11.1255   13.4839    0.7055 H   0  0  0  0  0  0  0  0  0  0  0  0
   -9.7635   11.7259    0.7875 H   0  0  0  0  0  0  0  0  0  0  0  0
  -10.8595   11.1369   -0.2925 H   0  0  0  0  0  0  0  0  0  0  0  0
   -3.6665    9.8949   -7.7365 H   0  0  0  0  0  0  0  0  0  0  0  0
   -4.3455   11.2759   -7.0805 H   0  0  0  0  0  0  0  0  0  0  0  0
   -4.1365   13.0519  -10.1685 H   0  0  0  0  0  0  0  0  0  0  0  0
   -4.9765   13.0059   -8.7435 H   0  0  0  0  0  0  0  0  0  0  0  0
   -6.4775   12.3989  -10.4275 H   0  0  0  0  0  0  0  0  0  0  0  0
   -5.4275   11.2869  -11.0125 H   0  0  0  0  0  0  0  0  0  0  0  0
   -1.7235   12.5749   -6.2535 H   0  0  0  0  0  0  0  0  0  0  0  0
   -2.0025   13.9809   -7.0405 H   0  0  0  0  0  0  0  0  0  0  0  0
   -3.2515   13.0179   -6.6345 H   0  0  0  0  0  0  0  0  0  0  0  0
  -10.1065    8.3599  -12.2485 H   0  0  0  0  0  0  0  0  0  0  0  0
  -10.4885    6.1299  -15.7025 H   0  0  0  0  0  0  0  0  0  0  0  0
  1 48  1  0  0  0  0
  1 49  1  0  0  0  0
  1 50  1  0  0  0  0
  2  1  1  6  0  0  0
  2  3  1  0  0  0  0
  2  7  1  0  0  0  0
  2 46  1  0  0  0  0
  3  4  1  0  0  0  0
  3 51  1  0  0  0  0
  3 52  1  0  0  0  0
  4  5  1  0  0  0  0
  4 53  1  0  0  0  0
  4 54  1  0  0  0  0
  5  6  1  0  0  0  0
  5  8  1  0  0  0  0
  5 55  1  1  0  0  0
  6  7  1  0  0  0  0
  6 56  1  0  0  0  0
  6 57  1  0  0  0  0
  7 58  1  0  0  0  0
  7 59  1  0  0  0  0
  8  9  1  0  0  0  0
  8 60  1  0  0  0  0
  8 61  1  0  0  0  0
  9 10  1  0  0  0  0
  9 45  1  0  0  0  0
  9 47  1  6  0  0  0
 10 11  1  0  0  0  0
 10 62  1  0  0  0  0
 10 63  1  0  0  0  0
 11 12  1  0  0  0  0
 11 15  1  0  0  0  0
 12 13  2  0  0  0  0
 12 40  1  0  0  0  0
 13 14  1  0  0  0  0
 13 37  1  0  0  0  0
 14 15  2  0  0  0  0
 14 16  1  0  0  0  0
 16 17  2  0  0  0  0
 16 21  1  0  0  0  0
 17 18  1  0  0  0  0
 17 64  1  0  0  0  0
 18 19  2  0  0  0  0
 18 65  1  0  0  0  0
 19 20  1  0  0  0  0
 19 33  1  0  0  0  0
 20 21  2  0  0  0  0
 20 22  1  0  0  0  0
 21 66  1  0  0  0  0
 22 23  1  0  0  0  0
 23 24  1  0  0  0  0
 23 67  1  0  0  0  0
 23 68  1  0  0  0  0
 24 25  1  0  0  0  0
 24 69  1  0  0  0  0
 24 70  1  0  0  0  0
 25 26  1  0  0  0  0
 25 30  1  0  0  0  0
 25 71  1  0  0  0  0
 26 27  1  0  0  0  0
 26 72  1  0  0  0  0
 26 73  1  0  0  0  0
 27 28  1  0  0  0  0
 27 74  1  0  0  0  0
 27 75  1  0  0  0  0
 28 29  1  0  0  0  0
 28 31  1  0  0  0  0
 28 32  1  0  0  0  0
 29 30  1  0  0  0  0
 29 76  1  0  0  0  0
 29 77  1  0  0  0  0
 30 78  1  0  0  0  0
 30 79  1  0  0  0  0
 33 34  1  0  0  0  0
 33 35  1  0  0  0  0
 33 36  1  0  0  0  0
 37 38  1  0  0  0  0
 37 80  1  0  0  0  0
 37 81  1  0  0  0  0
 38 39  1  0  0  0  0
 38 41  1  0  0  0  0
 39 40  1  0  0  0  0
 39 82  1  0  0  0  0
 39 83  1  0  0  0  0
 40 84  1  0  0  0  0
 40 85  1  0  0  0  0
 41 42  2  0  0  0  0
 41 43  2  0  0  0  0
 41 44  1  0  0  0  0
 44 86  1  0  0  0  0
 44 87  1  0  0  0  0
 44 88  1  0  0  0  0
 45 89  1  0  0  0  0
 46 90  1  0  0  0  0
M  CHG  2   5   1  25   1
M  END
