CatS_130_D
 OpenBabel12031813433D

 96100  0  0  1  0  0  0  0  0999 V2000
  -12.4431   10.8169  -10.4960 C   0  0  0  0  0  0  0  0  0  0  0  0
  -11.6371   11.9989   -9.9310 C   0  0  0  0  0  0  0  0  0  0  0  0
  -12.2421   12.4339   -8.5840 C   0  0  0  0  0  0  0  0  0  0  0  0
  -11.7921   13.1759  -10.9090 C   0  0  0  0  0  0  0  0  0  0  0  0
  -10.1981   11.6809   -9.8490 N   0  0  0  0  0  0  0  0  0  0  0  0
   -9.7361   10.7219   -9.0100 C   0  0  0  0  0  0  0  0  0  0  0  0
  -10.4801   10.1849   -8.1810 O   0  0  0  0  0  0  0  0  0  0  0  0
   -8.4261   10.3759   -9.0800 N   0  0  0  0  0  0  0  0  0  0  0  0
   -7.5621   10.6339  -10.2580 C   0  0  0  0  0  0  0  0  0  0  0  0
   -6.2541   11.3389   -9.8410 C   0  0  0  0  0  0  0  0  0  0  0  0
   -5.6171   10.6279   -8.6560 C   0  0  0  0  0  0  0  0  0  0  0  0
   -6.3281    9.8669   -7.8170 C   0  0  0  0  0  0  0  0  0  0  0  0
   -5.3611    9.3969   -6.8990 C   0  0  0  0  0  0  0  0  0  0  0  0
   -4.1891    9.8909   -7.2390 N   0  0  0  0  0  0  0  0  0  0  0  0
   -4.3001   10.6829   -8.3260 N   0  0  0  0  0  0  0  0  0  0  0  0
   -3.1921   11.4579   -8.9040 C   0  0  0  0  0  0  0  0  0  0  0  0
   -3.0191   12.8029   -8.1700 C   0  0  2  0  0  0  0  0  0  0  0  0
   -2.5251   12.5799   -6.7230 C   0  0  0  0  0  0  0  0  0  0  0  0
   -1.4641   13.5539   -6.2680 N   0  3  0  0  0  0  0  0  0  0  0  0
   -1.3061   13.6199   -4.7650 C   0  0  0  0  0  0  0  0  0  0  0  0
   -2.0171   14.8479   -4.1480 C   0  0  0  0  0  0  0  0  0  0  0  0
   -3.2231   15.2729   -5.0070 C   0  0  0  0  0  0  0  0  0  0  0  0
   -2.7681   15.7159   -6.4160 C   0  0  0  0  0  0  0  0  0  0  0  0
   -1.5451   14.9119   -6.9210 C   0  0  0  0  0  0  0  0  0  0  0  0
   -4.2531   13.5329   -8.1930 O   0  0  0  0  0  0  0  0  0  0  0  0
   -5.5251    8.5179   -5.7530 C   0  0  0  0  0  0  0  0  0  0  0  0
   -4.4531    7.7619   -5.3180 C   0  0  0  0  0  0  0  0  0  0  0  0
   -4.5801    6.9179   -4.2400 C   0  0  0  0  0  0  0  0  0  0  0  0
   -5.7701    6.8099   -3.5480 C   0  0  0  0  0  0  0  0  0  0  0  0
   -6.8371    7.5889   -3.9730 C   0  0  0  0  0  0  0  0  0  0  0  0
   -6.7191    8.4169   -5.0640 C   0  0  0  0  0  0  0  0  0  0  0  0
   -8.4211    7.5849   -3.1210 S   0  0  0  0  0  0  0  0  0  0  0  0
   -8.4671    9.1419   -2.1910 C   0  0  0  0  0  0  0  0  0  0  0  0
   -8.4991   10.3189   -3.1880 C   0  0  0  0  0  0  0  0  0  0  0  0
   -8.5081   11.6989   -2.5700 N   0  3  2  0  0  0  0  0  0  0  0  0
   -7.6831   11.8089   -1.3070 C   0  0  0  0  0  0  0  0  0  0  0  0
   -7.9491   13.1619   -0.6200 C   0  0  0  0  0  0  0  0  0  0  0  0
   -9.4261   13.2529   -0.1610 C   0  0  1  0  0  0  0  0  0  0  0  0
  -10.3731   12.3819   -1.0210 C   0  0  0  0  0  0  0  0  0  0  0  0
   -9.8801   12.3359   -2.4800 C   0  0  0  0  0  0  0  0  0  0  0  0
   -9.5251   12.8559    1.1690 F   0  0  0  0  0  0  0  0  0  0  0  0
   -5.8121    5.8429   -2.3670 C   0  0  0  0  0  0  0  0  0  0  0  0
   -5.2871    6.4329   -1.2230 F   0  0  0  0  0  0  0  0  0  0  0  0
   -7.0971    5.4149   -2.0420 F   0  0  0  0  0  0  0  0  0  0  0  0
   -5.0601    4.7039   -2.6320 F   0  0  0  0  0  0  0  0  0  0  0  0
   -7.8281    9.6219   -7.9580 C   0  0  0  0  0  0  0  0  0  0  0  0
   -2.3231   13.3429   -8.6430 H   0  0  0  0  0  0  0  0  0  0  0  0
  -11.8181   10.0619  -10.6960 H   0  0  0  0  0  0  0  0  0  0  0  0
  -13.1251   10.5219   -9.8260 H   0  0  0  0  0  0  0  0  0  0  0  0
  -12.9111   11.0989  -11.3340 H   0  0  0  0  0  0  0  0  0  0  0  0
  -11.5261   12.4199   -7.8860 H   0  0  0  0  0  0  0  0  0  0  0  0
  -12.6151   13.3579   -8.6650 H   0  0  0  0  0  0  0  0  0  0  0  0
  -12.9771   11.8069   -8.3270 H   0  0  0  0  0  0  0  0  0  0  0  0
  -10.8881   13.4379  -11.2490 H   0  0  0  0  0  0  0  0  0  0  0  0
  -12.3741   12.9039  -11.6750 H   0  0  0  0  0  0  0  0  0  0  0  0
  -12.2131   13.9509  -10.4390 H   0  0  0  0  0  0  0  0  0  0  0  0
   -9.6371   12.1379  -10.3430 H   0  0  0  0  0  0  0  0  0  0  0  0
   -8.0551   11.2129  -10.9070 H   0  0  0  0  0  0  0  0  0  0  0  0
   -7.3291    9.7579  -10.6790 H   0  0  0  0  0  0  0  0  0  0  0  0
   -6.4541   12.2859   -9.5910 H   0  0  0  0  0  0  0  0  0  0  0  0
   -5.6161   11.3159  -10.6110 H   0  0  0  0  0  0  0  0  0  0  0  0
   -3.3821   11.6309   -9.8710 H   0  0  0  0  0  0  0  0  0  0  0  0
   -2.3481   10.9299   -8.8060 H   0  0  0  0  0  0  0  0  0  0  0  0
   -2.1521   11.6539   -6.6580 H   0  0  0  0  0  0  0  0  0  0  0  0
   -3.3161   12.7219   -6.1280 H   0  0  0  0  0  0  0  0  0  0  0  0
   -0.6791   13.2039   -6.5710 H   0  0  0  0  0  0  0  0  0  0  0  0
   -0.3321   13.6669   -4.5450 H   0  0  0  0  0  0  0  0  0  0  0  0
   -1.7291   12.8009   -4.3790 H   0  0  0  0  0  0  0  0  0  0  0  0
   -1.3701   15.6079   -4.0890 H   0  0  0  0  0  0  0  0  0  0  0  0
   -2.3461   14.6029   -3.2360 H   0  0  0  0  0  0  0  0  0  0  0  0
   -3.6951   16.0319   -4.5590 H   0  0  0  0  0  0  0  0  0  0  0  0
   -3.8391   14.4909   -5.1030 H   0  0  0  0  0  0  0  0  0  0  0  0
   -2.5271   16.6859   -6.3870 H   0  0  0  0  0  0  0  0  0  0  0  0
   -3.5241   15.5469   -7.0480 H   0  0  0  0  0  0  0  0  0  0  0  0
   -1.6181   14.7929   -7.9110 H   0  0  0  0  0  0  0  0  0  0  0  0
   -0.7171   15.4219   -6.6860 H   0  0  0  0  0  0  0  0  0  0  0  0
   -4.7451   13.3919   -9.0590 H   0  0  0  0  0  0  0  0  0  0  0  0
   -3.5751    7.8289   -5.7920 H   0  0  0  0  0  0  0  0  0  0  0  0
   -3.7951    6.3709   -3.9510 H   0  0  0  0  0  0  0  0  0  0  0  0
   -7.5081    8.9539   -5.3630 H   0  0  0  0  0  0  0  0  0  0  0  0
   -7.6561    9.2119   -1.6100 H   0  0  0  0  0  0  0  0  0  0  0  0
   -9.2831    9.1669   -1.6130 H   0  0  0  0  0  0  0  0  0  0  0  0
   -9.3211   10.2249   -3.7510 H   0  0  0  0  0  0  0  0  0  0  0  0
   -7.6471   10.2589   -3.7090 H   0  0  0  0  0  0  0  0  0  0  0  0
   -8.0611   12.2159   -3.1740 H   0  0  0  0  0  0  0  0  0  0  0  0
   -6.7121   11.7369   -1.5360 H   0  0  0  0  0  0  0  0  0  0  0  0
   -7.9371   11.0699   -0.6830 H   0  0  0  0  0  0  0  0  0  0  0  0
   -7.7551   13.9029   -1.2620 H   0  0  0  0  0  0  0  0  0  0  0  0
   -7.3571   13.2399    0.1820 H   0  0  0  0  0  0  0  0  0  0  0  0
   -9.7091   14.2059   -0.2710 H   0  0  0  0  0  0  0  0  0  0  0  0
  -11.2951   12.7689   -0.9930 H   0  0  0  0  0  0  0  0  0  0  0  0
  -10.3831   11.4519   -0.6530 H   0  0  0  0  0  0  0  0  0  0  0  0
  -10.5261   11.8049   -3.0300 H   0  0  0  0  0  0  0  0  0  0  0  0
   -9.8201   13.2729   -2.8250 H   0  0  0  0  0  0  0  0  0  0  0  0
   -7.9821    8.6459   -8.1080 H   0  0  0  0  0  0  0  0  0  0  0  0
   -8.2651    9.9379   -7.1150 H   0  0  0  0  0  0  0  0  0  0  0  0
  1  2  1  0  0  0  0
  1 48  1  0  0  0  0
  1 49  1  0  0  0  0
  1 50  1  0  0  0  0
  2  3  1  0  0  0  0
  2  4  1  0  0  0  0
  2  5  1  0  0  0  0
  3 51  1  0  0  0  0
  3 52  1  0  0  0  0
  3 53  1  0  0  0  0
  4 54  1  0  0  0  0
  4 55  1  0  0  0  0
  4 56  1  0  0  0  0
  5  6  1  0  0  0  0
  5 57  1  0  0  0  0
  6  7  2  0  0  0  0
  6  8  1  0  0  0  0
  8  9  1  0  0  0  0
  8 46  1  0  0  0  0
  9 10  1  0  0  0  0
  9 58  1  0  0  0  0
  9 59  1  0  0  0  0
 10 11  1  0  0  0  0
 10 60  1  0  0  0  0
 10 61  1  0  0  0  0
 11 12  2  0  0  0  0
 11 15  1  0  0  0  0
 12 13  1  0  0  0  0
 12 46  1  0  0  0  0
 13 14  2  0  0  0  0
 13 26  1  0  0  0  0
 14 15  1  0  0  0  0
 15 16  1  0  0  0  0
 16 17  1  0  0  0  0
 16 62  1  0  0  0  0
 16 63  1  0  0  0  0
 17 18  1  0  0  0  0
 17 25  1  0  0  0  0
 17 47  1  6  0  0  0
 18 19  1  0  0  0  0
 18 64  1  0  0  0  0
 18 65  1  0  0  0  0
 19 20  1  0  0  0  0
 19 24  1  0  0  0  0
 19 66  1  0  0  0  0
 20 21  1  0  0  0  0
 20 67  1  0  0  0  0
 20 68  1  0  0  0  0
 21 22  1  0  0  0  0
 21 69  1  0  0  0  0
 21 70  1  0  0  0  0
 22 23  1  0  0  0  0
 22 71  1  0  0  0  0
 22 72  1  0  0  0  0
 23 24  1  0  0  0  0
 23 73  1  0  0  0  0
 23 74  1  0  0  0  0
 24 75  1  0  0  0  0
 24 76  1  0  0  0  0
 25 77  1  0  0  0  0
 26 27  2  0  0  0  0
 26 31  1  0  0  0  0
 27 28  1  0  0  0  0
 27 78  1  0  0  0  0
 28 29  2  0  0  0  0
 28 79  1  0  0  0  0
 29 30  1  0  0  0  0
 29 42  1  0  0  0  0
 30 31  2  0  0  0  0
 30 32  1  0  0  0  0
 31 80  1  0  0  0  0
 32 33  1  0  0  0  0
 33 34  1  0  0  0  0
 33 81  1  0  0  0  0
 33 82  1  0  0  0  0
 34 35  1  0  0  0  0
 34 83  1  0  0  0  0
 34 84  1  0  0  0  0
 35 36  1  0  0  0  0
 35 40  1  0  0  0  0
 35 85  1  6  0  0  0
 36 37  1  0  0  0  0
 36 86  1  0  0  0  0
 36 87  1  0  0  0  0
 37 38  1  0  0  0  0
 37 88  1  0  0  0  0
 37 89  1  0  0  0  0
 38 39  1  0  0  0  0
 38 41  1  0  0  0  0
 38 90  1  6  0  0  0
 39 40  1  0  0  0  0
 39 91  1  0  0  0  0
 39 92  1  0  0  0  0
 40 93  1  0  0  0  0
 40 94  1  0  0  0  0
 42 43  1  0  0  0  0
 42 44  1  0  0  0  0
 42 45  1  0  0  0  0
 46 95  1  0  0  0  0
 46 96  1  0  0  0  0
M  CHG  2  19   1  35   1
M  END
