CatS_181_D
 OpenBabel12031813433D

102107  0  0  1  0  0  0  0  0999 V2000
  -10.5149   10.0075   -9.5082 C   0  0  0  0  0  0  0  0  0  0  0  0
   -9.1719    9.1675  -10.3902 S   0  0  0  0  0  0  0  0  0  0  0  0
   -9.2289    9.5485  -11.7642 O   0  0  0  0  0  0  0  0  0  0  0  0
   -9.2299    7.7755  -10.0802 O   0  0  0  0  0  0  0  0  0  0  0  0
   -7.7659    9.7255   -9.7982 N   0  0  0  0  0  0  0  0  0  0  0  0
   -7.4109   11.1405  -10.0402 C   0  0  0  0  0  0  0  0  0  0  0  0
   -5.8849   11.3755   -9.9292 C   0  0  0  0  0  0  0  0  0  0  0  0
   -5.2899   10.6275   -8.7492 C   0  0  0  0  0  0  0  0  0  0  0  0
   -5.9879    9.7235   -8.0602 C   0  0  0  0  0  0  0  0  0  0  0  0
   -5.0779    9.2755   -7.0762 C   0  0  0  0  0  0  0  0  0  0  0  0
   -3.9359    9.9075   -7.2492 N   0  0  0  0  0  0  0  0  0  0  0  0
   -4.0219   10.7685   -8.2882 N   0  0  0  0  0  0  0  0  0  0  0  0
   -2.9309   11.6325   -8.7542 C   0  0  0  0  0  0  0  0  0  0  0  0
   -2.9319   13.0285   -8.1042 C   0  0  2  0  0  0  0  0  0  0  0  0
   -2.1779   13.0085   -6.7582 C   0  0  0  0  0  0  0  0  0  0  0  0
   -2.4529   14.2285   -5.9122 N   0  3  1  0  0  0  0  0  0  0  0  0
   -1.7289   14.1715   -4.5892 C   0  0  0  0  0  0  0  0  0  0  0  0
   -2.0499   15.3955   -3.7062 C   0  0  0  0  0  0  0  0  0  0  0  0
   -1.6919   16.6895   -4.4712 C   0  0  1  0  0  0  0  0  0  0  0  0
   -2.5289   16.7395   -5.7672 C   0  0  0  0  0  0  0  0  0  0  0  0
   -2.1949   15.5215   -6.6502 C   0  0  0  0  0  0  0  0  0  0  0  0
   -1.8079   18.0025   -3.6502 C   0  0  0  0  0  0  0  0  0  0  0  0
   -0.6649   18.1475   -2.6192 C   0  0  0  0  0  0  0  0  0  0  0  0
   -0.6929   19.5555   -1.9952 C   0  0  0  0  0  0  0  0  0  0  0  0
   -2.0429   19.7805   -1.2862 C   0  0  0  0  0  0  0  0  0  0  0  0
   -3.2019   19.6155   -2.2902 C   0  0  0  0  0  0  0  0  0  0  0  0
   -3.1669   18.2175   -2.9432 C   0  0  0  0  0  0  0  0  0  0  0  0
   -4.2819   13.4735   -7.9042 O   0  0  0  0  0  0  0  0  0  0  0  0
   -5.2939    8.2915   -6.0292 C   0  0  0  0  0  0  0  0  0  0  0  0
   -4.3829    7.2695   -5.8432 C   0  0  0  0  0  0  0  0  0  0  0  0
   -4.5819    6.3245   -4.8642 C   0  0  0  0  0  0  0  0  0  0  0  0
   -5.6839    6.3675   -4.0342 C   0  0  0  0  0  0  0  0  0  0  0  0
   -6.5829    7.4115   -4.2072 C   0  0  0  0  0  0  0  0  0  0  0  0
   -6.3939    8.3515   -5.1942 C   0  0  0  0  0  0  0  0  0  0  0  0
   -8.0299    7.6075   -3.1552 S   0  0  0  0  0  0  0  0  0  0  0  0
   -8.0489    9.2445   -2.3632 C   0  0  0  0  0  0  0  0  0  0  0  0
   -9.2019   10.1655   -2.8132 C   0  0  0  0  0  0  0  0  0  0  0  0
   -9.0519   11.5965   -2.3622 N   0  3  0  0  0  0  0  0  0  0  0  0
   -8.0609   11.7805   -1.2362 C   0  0  0  0  0  0  0  0  0  0  0  0
   -7.9109   13.2705   -0.8652 C   0  0  0  0  0  0  0  0  0  0  0  0
   -9.2849   13.8615   -0.5012 C   0  0  0  0  0  0  0  0  0  0  0  0
  -10.2659   13.6985   -1.6772 C   0  0  0  0  0  0  0  0  0  0  0  0
  -10.3949   12.2085   -2.0502 C   0  0  0  0  0  0  0  0  0  0  0  0
   -9.7869   13.2195    0.6248 F   0  0  0  0  0  0  0  0  0  0  0  0
   -9.1499   15.2085   -0.1832 F   0  0  0  0  0  0  0  0  0  0  0  0
   -5.8019    5.2575   -2.9912 C   0  0  0  0  0  0  0  0  0  0  0  0
   -5.6679    5.7195   -1.6852 F   0  0  0  0  0  0  0  0  0  0  0  0
   -4.8279    4.2775   -3.1562 F   0  0  0  0  0  0  0  0  0  0  0  0
   -7.0399    4.6315   -3.0802 F   0  0  0  0  0  0  0  0  0  0  0  0
   -7.4289    9.3745   -8.4002 C   0  0  0  0  0  0  0  0  0  0  0  0
   -2.4629   13.6635   -8.7182 H   0  0  0  0  0  0  0  0  0  0  0  0
  -10.1209   10.6395   -8.8412 H   0  0  0  0  0  0  0  0  0  0  0  0
  -11.0809   10.5135  -10.1582 H   0  0  0  0  0  0  0  0  0  0  0  0
  -11.0829    9.3315   -9.0392 H   0  0  0  0  0  0  0  0  0  0  0  0
   -7.8799   11.7135   -9.3672 H   0  0  0  0  0  0  0  0  0  0  0  0
   -7.6959   11.3785  -10.9692 H   0  0  0  0  0  0  0  0  0  0  0  0
   -5.7129   12.3545   -9.8172 H   0  0  0  0  0  0  0  0  0  0  0  0
   -5.4539   11.0335  -10.7652 H   0  0  0  0  0  0  0  0  0  0  0  0
   -3.0119   11.7415   -9.7452 H   0  0  0  0  0  0  0  0  0  0  0  0
   -2.0729   11.1885   -8.4932 H   0  0  0  0  0  0  0  0  0  0  0  0
   -1.1959   12.9595   -6.9412 H   0  0  0  0  0  0  0  0  0  0  0  0
   -2.4979   12.2115   -6.2462 H   0  0  0  0  0  0  0  0  0  0  0  0
   -3.3409   14.2135   -5.7092 H   0  0  0  0  0  0  0  0  0  0  0  0
   -0.7439   14.1415   -4.7582 H   0  0  0  0  0  0  0  0  0  0  0  0
   -2.0329   13.3515   -4.1042 H   0  0  0  0  0  0  0  0  0  0  0  0
   -1.5189   15.3475   -2.8602 H   0  0  0  0  0  0  0  0  0  0  0  0
   -3.0249   15.3995   -3.4832 H   0  0  0  0  0  0  0  0  0  0  0  0
   -0.7159   16.6425   -4.6832 H   0  0  0  0  0  0  0  0  0  0  0  0
   -2.3219   17.5805   -6.2662 H   0  0  0  0  0  0  0  0  0  0  0  0
   -3.5009   16.7195   -5.5332 H   0  0  0  0  0  0  0  0  0  0  0  0
   -2.7609   15.5475   -7.4742 H   0  0  0  0  0  0  0  0  0  0  0  0
   -1.2259   15.5615   -6.8922 H   0  0  0  0  0  0  0  0  0  0  0  0
   -1.7319   18.7175   -4.3452 H   0  0  0  0  0  0  0  0  0  0  0  0
    0.2131   18.0005   -3.0732 H   0  0  0  0  0  0  0  0  0  0  0  0
   -0.7879   17.4675   -1.8962 H   0  0  0  0  0  0  0  0  0  0  0  0
   -0.5719   20.2415   -2.7122 H   0  0  0  0  0  0  0  0  0  0  0  0
    0.0491   19.6385   -1.3292 H   0  0  0  0  0  0  0  0  0  0  0  0
   -2.0659   20.7015   -0.8992 H   0  0  0  0  0  0  0  0  0  0  0  0
   -2.1459   19.1045   -0.5562 H   0  0  0  0  0  0  0  0  0  0  0  0
   -3.1239   20.3145   -3.0002 H   0  0  0  0  0  0  0  0  0  0  0  0
   -4.0669   19.7175   -1.7992 H   0  0  0  0  0  0  0  0  0  0  0  0
   -3.2919   17.5175   -2.2402 H   0  0  0  0  0  0  0  0  0  0  0  0
   -3.9029   18.1515   -3.6162 H   0  0  0  0  0  0  0  0  0  0  0  0
   -4.6549   13.1325   -7.0342 H   0  0  0  0  0  0  0  0  0  0  0  0
   -3.5709    7.2155   -6.4252 H   0  0  0  0  0  0  0  0  0  0  0  0
   -3.9129    5.5895   -4.7512 H   0  0  0  0  0  0  0  0  0  0  0  0
   -7.0619    9.0875   -5.3082 H   0  0  0  0  0  0  0  0  0  0  0  0
   -7.1829    9.7025   -2.5692 H   0  0  0  0  0  0  0  0  0  0  0  0
   -8.1829    9.0845   -1.3852 H   0  0  0  0  0  0  0  0  0  0  0  0
  -10.0579    9.8035   -2.4442 H   0  0  0  0  0  0  0  0  0  0  0  0
   -9.1919   10.1745   -3.8132 H   0  0  0  0  0  0  0  0  0  0  0  0
   -8.7169   12.0545   -3.0762 H   0  0  0  0  0  0  0  0  0  0  0  0
   -7.1709   11.4215   -1.5202 H   0  0  0  0  0  0  0  0  0  0  0  0
   -8.3969   11.2885   -0.4342 H   0  0  0  0  0  0  0  0  0  0  0  0
   -7.5279   13.7705   -1.6422 H   0  0  0  0  0  0  0  0  0  0  0  0
   -7.2989   13.3535   -0.0782 H   0  0  0  0  0  0  0  0  0  0  0  0
   -9.9289   14.2125   -2.4652 H   0  0  0  0  0  0  0  0  0  0  0  0
  -11.1629   14.0485   -1.4072 H   0  0  0  0  0  0  0  0  0  0  0  0
  -10.8089   11.7135   -1.2852 H   0  0  0  0  0  0  0  0  0  0  0  0
  -10.9679   12.1395   -2.8662 H   0  0  0  0  0  0  0  0  0  0  0  0
   -7.5659    8.3925   -8.2692 H   0  0  0  0  0  0  0  0  0  0  0  0
   -8.0249    9.9025   -7.7952 H   0  0  0  0  0  0  0  0  0  0  0  0
  1  2  1  0  0  0  0
  1 52  1  0  0  0  0
  1 53  1  0  0  0  0
  1 54  1  0  0  0  0
  2  3  2  0  0  0  0
  2  4  2  0  0  0  0
  2  5  1  0  0  0  0
  5  6  1  0  0  0  0
  5 50  1  0  0  0  0
  6  7  1  0  0  0  0
  6 55  1  0  0  0  0
  6 56  1  0  0  0  0
  7  8  1  0  0  0  0
  7 57  1  0  0  0  0
  7 58  1  0  0  0  0
  8  9  2  0  0  0  0
  8 12  1  0  0  0  0
  9 10  1  0  0  0  0
  9 50  1  0  0  0  0
 10 11  2  0  0  0  0
 10 29  1  0  0  0  0
 11 12  1  0  0  0  0
 12 13  1  0  0  0  0
 13 14  1  0  0  0  0
 13 59  1  0  0  0  0
 13 60  1  0  0  0  0
 14 15  1  0  0  0  0
 14 28  1  0  0  0  0
 14 51  1  6  0  0  0
 15 16  1  0  0  0  0
 15 61  1  0  0  0  0
 15 62  1  0  0  0  0
 16 17  1  0  0  0  0
 16 21  1  0  0  0  0
 16 63  1  1  0  0  0
 17 18  1  0  0  0  0
 17 64  1  0  0  0  0
 17 65  1  0  0  0  0
 18 19  1  0  0  0  0
 18 66  1  0  0  0  0
 18 67  1  0  0  0  0
 19 20  1  0  0  0  0
 19 22  1  0  0  0  0
 19 68  1  6  0  0  0
 20 21  1  0  0  0  0
 20 69  1  0  0  0  0
 20 70  1  0  0  0  0
 21 71  1  0  0  0  0
 21 72  1  0  0  0  0
 22 23  1  0  0  0  0
 22 27  1  0  0  0  0
 22 73  1  0  0  0  0
 23 24  1  0  0  0  0
 23 74  1  0  0  0  0
 23 75  1  0  0  0  0
 24 25  1  0  0  0  0
 24 76  1  0  0  0  0
 24 77  1  0  0  0  0
 25 26  1  0  0  0  0
 25 78  1  0  0  0  0
 25 79  1  0  0  0  0
 26 27  1  0  0  0  0
 26 80  1  0  0  0  0
 26 81  1  0  0  0  0
 27 82  1  0  0  0  0
 27 83  1  0  0  0  0
 28 84  1  0  0  0  0
 29 30  2  0  0  0  0
 29 34  1  0  0  0  0
 30 31  1  0  0  0  0
 30 85  1  0  0  0  0
 31 32  2  0  0  0  0
 31 86  1  0  0  0  0
 32 33  1  0  0  0  0
 32 46  1  0  0  0  0
 33 34  2  0  0  0  0
 33 35  1  0  0  0  0
 34 87  1  0  0  0  0
 35 36  1  0  0  0  0
 36 37  1  0  0  0  0
 36 88  1  0  0  0  0
 36 89  1  0  0  0  0
 37 38  1  0  0  0  0
 37 90  1  0  0  0  0
 37 91  1  0  0  0  0
 38 39  1  0  0  0  0
 38 43  1  0  0  0  0
 38 92  1  0  0  0  0
 39 40  1  0  0  0  0
 39 93  1  0  0  0  0
 39 94  1  0  0  0  0
 40 41  1  0  0  0  0
 40 95  1  0  0  0  0
 40 96  1  0  0  0  0
 41 42  1  0  0  0  0
 41 44  1  0  0  0  0
 41 45  1  0  0  0  0
 42 43  1  0  0  0  0
 42 97  1  0  0  0  0
 42 98  1  0  0  0  0
 43 99  1  0  0  0  0
 43100  1  0  0  0  0
 46 47  1  0  0  0  0
 46 48  1  0  0  0  0
 46 49  1  0  0  0  0
 50101  1  0  0  0  0
 50102  1  0  0  0  0
M  CHG  2  16   1  38   1
M  END
