CatS_144_D
 OpenBabel12031813433D

 89 93  0  0  1  0  0  0  0  0999 V2000
  -11.6533   10.4717  -11.3291 C   0  0  0  0  0  0  0  0  0  0  0  0
  -10.1483   10.1487  -11.4011 C   0  0  1  0  0  0  0  0  0  0  0  0
   -9.5803    9.6147  -10.0991 C   0  0  0  0  0  0  0  0  0  0  0  0
  -10.3223    9.0187   -9.3301 O   0  0  0  0  0  0  0  0  0  0  0  0
   -8.2663    9.8337   -9.8601 N   0  0  0  0  0  0  0  0  0  0  0  0
   -7.3573   10.5627  -10.7811 C   0  0  0  0  0  0  0  0  0  0  0  0
   -6.4203   11.5487  -10.0501 C   0  0  0  0  0  0  0  0  0  0  0  0
   -5.7873   10.9017   -8.8301 C   0  0  0  0  0  0  0  0  0  0  0  0
   -6.3613    9.8707   -8.2021 C   0  0  0  0  0  0  0  0  0  0  0  0
   -5.4493    9.5687   -7.1641 C   0  0  0  0  0  0  0  0  0  0  0  0
   -4.4393   10.4087   -7.2401 N   0  0  0  0  0  0  0  0  0  0  0  0
   -4.6123   11.2757   -8.2601 N   0  0  0  0  0  0  0  0  0  0  0  0
   -3.7083   12.3957   -8.5591 C   0  0  0  0  0  0  0  0  0  0  0  0
   -2.5693   12.4517   -7.5211 C   0  0  2  0  0  0  0  0  0  0  0  0
   -2.8513   13.5327   -6.4541 C   0  0  0  0  0  0  0  0  0  0  0  0
   -1.6193   14.0817   -5.7721 N   0  3  0  0  0  0  0  0  0  0  0  0
   -1.1663   15.4257   -6.2861 C   0  0  0  0  0  0  0  0  0  0  0  0
   -2.1453   16.5487   -5.8671 C   0  0  0  0  0  0  0  0  0  0  0  0
   -2.9193   16.2047   -4.5741 C   0  0  0  0  0  0  0  0  0  0  0  0
   -2.0513   15.3627   -3.6191 C   0  0  0  0  0  0  0  0  0  0  0  0
   -1.6743   14.0067   -4.2621 C   0  0  0  0  0  0  0  0  0  0  0  0
   -1.3203   12.6897   -8.1861 O   0  0  0  0  0  0  0  0  0  0  0  0
   -5.5183    8.5287   -6.1511 C   0  0  0  0  0  0  0  0  0  0  0  0
   -4.6743    7.4387   -6.2421 C   0  0  0  0  0  0  0  0  0  0  0  0
   -4.7163    6.4387   -5.3001 C   0  0  0  0  0  0  0  0  0  0  0  0
   -5.5863    6.4937   -4.2301 C   0  0  0  0  0  0  0  0  0  0  0  0
   -6.4153    7.6017   -4.1291 C   0  0  0  0  0  0  0  0  0  0  0  0
   -6.3913    8.5957   -5.0811 C   0  0  0  0  0  0  0  0  0  0  0  0
   -7.5483    7.8197   -2.7491 S   0  0  0  0  0  0  0  0  0  0  0  0
   -7.9573    9.5867   -2.7461 C   0  0  0  0  0  0  0  0  0  0  0  0
   -8.4923   10.0347   -1.3701 C   0  0  0  0  0  0  0  0  0  0  0  0
   -8.8103   11.5077   -1.3211 N   0  3  1  0  0  0  0  0  0  0  0  0
  -10.0683   11.7997   -0.5451 C   0  0  0  0  0  0  0  0  0  0  0  0
  -10.5333   13.2637   -0.7481 C   0  0  0  0  0  0  0  0  0  0  0  0
   -9.3653   14.2027   -1.1321 C   0  0  2  0  0  0  0  0  0  0  0  0
   -8.0663   13.7737   -0.4241 C   0  0  0  0  0  0  0  0  0  0  0  0
   -7.6403   12.3547   -0.8731 C   0  0  0  0  0  0  0  0  0  0  0  0
   -9.6813   15.5087   -0.7741 F   0  0  0  0  0  0  0  0  0  0  0  0
   -5.5563    5.3267   -3.2451 C   0  0  0  0  0  0  0  0  0  0  0  0
   -5.2683    5.7687   -1.9581 F   0  0  0  0  0  0  0  0  0  0  0  0
   -6.7603    4.6317   -3.1671 F   0  0  0  0  0  0  0  0  0  0  0  0
   -4.5803    4.4017   -3.5941 F   0  0  0  0  0  0  0  0  0  0  0  0
   -7.6863    9.2517   -8.6281 C   0  0  0  0  0  0  0  0  0  0  0  0
   -9.8033    9.3527  -12.5451 O   0  0  0  0  0  0  0  0  0  0  0  0
   -9.6913   11.0277  -11.5381 H   0  0  0  0  0  0  0  0  0  0  0  0
   -2.5163   11.5727   -7.0481 H   0  0  0  0  0  0  0  0  0  0  0  0
  -11.8683   10.8157  -10.4151 H   0  0  0  0  0  0  0  0  0  0  0  0
  -11.8833   11.1657  -12.0121 H   0  0  0  0  0  0  0  0  0  0  0  0
  -12.1843    9.6447  -11.5131 H   0  0  0  0  0  0  0  0  0  0  0  0
   -7.9103   11.0737  -11.4391 H   0  0  0  0  0  0  0  0  0  0  0  0
   -6.7793    9.8817  -11.2321 H   0  0  0  0  0  0  0  0  0  0  0  0
   -6.9473   12.3477   -9.7621 H   0  0  0  0  0  0  0  0  0  0  0  0
   -5.6913   11.8177  -10.6791 H   0  0  0  0  0  0  0  0  0  0  0  0
   -4.2233   13.2527   -8.5371 H   0  0  0  0  0  0  0  0  0  0  0  0
   -3.3133   12.2617   -9.4691 H   0  0  0  0  0  0  0  0  0  0  0  0
   -3.4463   13.1357   -5.7561 H   0  0  0  0  0  0  0  0  0  0  0  0
   -3.2723   14.3017   -6.9351 H   0  0  0  0  0  0  0  0  0  0  0  0
   -0.9493   13.5117   -6.0101 H   0  0  0  0  0  0  0  0  0  0  0  0
   -1.1123   15.3927   -7.2841 H   0  0  0  0  0  0  0  0  0  0  0  0
   -0.2703   15.6267   -5.8911 H   0  0  0  0  0  0  0  0  0  0  0  0
   -2.8023   16.6977   -6.6071 H   0  0  0  0  0  0  0  0  0  0  0  0
   -1.6063   17.3717   -5.6881 H   0  0  0  0  0  0  0  0  0  0  0  0
   -3.7433   15.6887   -4.8111 H   0  0  0  0  0  0  0  0  0  0  0  0
   -3.1653   17.0567   -4.1121 H   0  0  0  0  0  0  0  0  0  0  0  0
   -2.5583   15.1977   -2.7731 H   0  0  0  0  0  0  0  0  0  0  0  0
   -1.2093   15.8677   -3.4261 H   0  0  0  0  0  0  0  0  0  0  0  0
   -0.7793   13.7237   -3.9201 H   0  0  0  0  0  0  0  0  0  0  0  0
   -2.3833   13.3457   -4.0161 H   0  0  0  0  0  0  0  0  0  0  0  0
   -0.5523   12.6777   -7.5361 H   0  0  0  0  0  0  0  0  0  0  0  0
   -4.0263    7.3767   -7.0011 H   0  0  0  0  0  0  0  0  0  0  0  0
   -4.1043    5.6527   -5.3931 H   0  0  0  0  0  0  0  0  0  0  0  0
   -7.0123    9.3747   -4.9971 H   0  0  0  0  0  0  0  0  0  0  0  0
   -8.6533    9.7627   -3.4421 H   0  0  0  0  0  0  0  0  0  0  0  0
   -7.1243   10.1047   -2.9431 H   0  0  0  0  0  0  0  0  0  0  0  0
   -7.8033    9.8297   -0.6751 H   0  0  0  0  0  0  0  0  0  0  0  0
   -9.3433    9.5377   -1.2011 H   0  0  0  0  0  0  0  0  0  0  0  0
   -9.0033   11.7557   -2.1771 H   0  0  0  0  0  0  0  0  0  0  0  0
   -9.8963   11.6427    0.4269 H   0  0  0  0  0  0  0  0  0  0  0  0
  -10.7903   11.1927   -0.8781 H   0  0  0  0  0  0  0  0  0  0  0  0
  -10.9473   13.5917    0.0999 H   0  0  0  0  0  0  0  0  0  0  0  0
  -11.1913   13.2737   -1.5011 H   0  0  0  0  0  0  0  0  0  0  0  0
   -9.2233   14.1467   -2.1201 H   0  0  0  0  0  0  0  0  0  0  0  0
   -8.2143   13.7777    0.5649 H   0  0  0  0  0  0  0  0  0  0  0  0
   -7.3413   14.4177   -0.6671 H   0  0  0  0  0  0  0  0  0  0  0  0
   -6.9933   12.4377   -1.6311 H   0  0  0  0  0  0  0  0  0  0  0  0
   -7.2253   11.9027   -0.0831 H   0  0  0  0  0  0  0  0  0  0  0  0
   -7.5433    8.2737   -8.7791 H   0  0  0  0  0  0  0  0  0  0  0  0
   -8.3363    9.4377   -7.8911 H   0  0  0  0  0  0  0  0  0  0  0  0
  -10.4653    8.6087  -12.6861 H   0  0  0  0  0  0  0  0  0  0  0  0
  1  2  1  0  0  0  0
  1 47  1  0  0  0  0
  1 48  1  0  0  0  0
  1 49  1  0  0  0  0
  2  3  1  0  0  0  0
  2 44  1  0  0  0  0
  2 45  1  6  0  0  0
  3  4  2  0  0  0  0
  3  5  1  0  0  0  0
  5  6  1  0  0  0  0
  5 43  1  0  0  0  0
  6  7  1  0  0  0  0
  6 50  1  0  0  0  0
  6 51  1  0  0  0  0
  7  8  1  0  0  0  0
  7 52  1  0  0  0  0
  7 53  1  0  0  0  0
  8  9  2  0  0  0  0
  8 12  1  0  0  0  0
  9 10  1  0  0  0  0
  9 43  1  0  0  0  0
 10 11  2  0  0  0  0
 10 23  1  0  0  0  0
 11 12  1  0  0  0  0
 12 13  1  0  0  0  0
 13 14  1  0  0  0  0
 13 54  1  0  0  0  0
 13 55  1  0  0  0  0
 14 15  1  0  0  0  0
 14 22  1  0  0  0  0
 14 46  1  1  0  0  0
 15 16  1  0  0  0  0
 15 56  1  0  0  0  0
 15 57  1  0  0  0  0
 16 17  1  0  0  0  0
 16 21  1  0  0  0  0
 16 58  1  0  0  0  0
 17 18  1  0  0  0  0
 17 59  1  0  0  0  0
 17 60  1  0  0  0  0
 18 19  1  0  0  0  0
 18 61  1  0  0  0  0
 18 62  1  0  0  0  0
 19 20  1  0  0  0  0
 19 63  1  0  0  0  0
 19 64  1  0  0  0  0
 20 21  1  0  0  0  0
 20 65  1  0  0  0  0
 20 66  1  0  0  0  0
 21 67  1  0  0  0  0
 21 68  1  0  0  0  0
 22 69  1  0  0  0  0
 23 24  2  0  0  0  0
 23 28  1  0  0  0  0
 24 25  1  0  0  0  0
 24 70  1  0  0  0  0
 25 26  2  0  0  0  0
 25 71  1  0  0  0  0
 26 27  1  0  0  0  0
 26 39  1  0  0  0  0
 27 28  2  0  0  0  0
 27 29  1  0  0  0  0
 28 72  1  0  0  0  0
 29 30  1  0  0  0  0
 30 31  1  0  0  0  0
 30 73  1  0  0  0  0
 30 74  1  0  0  0  0
 31 32  1  0  0  0  0
 31 75  1  0  0  0  0
 31 76  1  0  0  0  0
 32 33  1  0  0  0  0
 32 37  1  0  0  0  0
 32 77  1  6  0  0  0
 33 34  1  0  0  0  0
 33 78  1  0  0  0  0
 33 79  1  0  0  0  0
 34 35  1  0  0  0  0
 34 80  1  0  0  0  0
 34 81  1  0  0  0  0
 35 36  1  0  0  0  0
 35 38  1  0  0  0  0
 35 82  1  6  0  0  0
 36 37  1  0  0  0  0
 36 83  1  0  0  0  0
 36 84  1  0  0  0  0
 37 85  1  0  0  0  0
 37 86  1  0  0  0  0
 39 40  1  0  0  0  0
 39 41  1  0  0  0  0
 39 42  1  0  0  0  0
 43 87  1  0  0  0  0
 43 88  1  0  0  0  0
 44 89  1  0  0  0  0
M  CHG  2  16   1  32   1
M  END
