CatS_167_D
 OpenBabel12031813433D

 86 90  0  0  1  0  0  0  0  0999 V2000
   -9.1963    8.7105  -10.9565 C   0  0  0  0  0  0  0  0  0  0  0  0
   -9.4213   10.2725  -10.0655 S   0  0  0  0  0  0  0  0  0  0  0  0
  -10.2743   10.0145   -8.9505 O   0  0  0  0  0  0  0  0  0  0  0  0
   -9.8213   11.2735  -11.0015 O   0  0  0  0  0  0  0  0  0  0  0  0
   -7.9583   10.6905   -9.4865 N   0  0  0  0  0  0  0  0  0  0  0  0
   -6.9203   10.9825  -10.4975 C   0  0  0  0  0  0  0  0  0  0  0  0
   -5.7243   11.7495   -9.8865 C   0  0  0  0  0  0  0  0  0  0  0  0
   -5.1933   10.9955   -8.6805 C   0  0  0  0  0  0  0  0  0  0  0  0
   -5.9523   10.1085   -8.0325 C   0  0  0  0  0  0  0  0  0  0  0  0
   -5.0883    9.5975   -7.0355 C   0  0  0  0  0  0  0  0  0  0  0  0
   -3.9263   10.2085   -7.1425 N   0  0  0  0  0  0  0  0  0  0  0  0
   -3.9463   11.1035   -8.1545 N   0  0  0  0  0  0  0  0  0  0  0  0
   -2.8143   11.9625   -8.5265 C   0  0  0  0  0  0  0  0  0  0  0  0
   -2.8243   13.3445   -7.8425 C   0  0  2  0  0  0  0  0  0  0  0  0
   -2.0833   13.2915   -6.4885 C   0  0  0  0  0  0  0  0  0  0  0  0
   -2.0723   14.6045   -5.7435 N   0  3  0  0  0  0  0  0  0  0  0  0
   -2.0313   14.3895   -4.2495 C   0  0  0  0  0  0  0  0  0  0  0  0
   -2.0843   15.7265   -3.4815 C   0  0  0  0  0  0  0  0  0  0  0  0
   -0.9253   16.6325   -3.9345 C   0  0  0  0  0  0  0  0  0  0  0  0
   -1.0343   16.8845   -5.4485 C   0  0  0  0  0  0  0  0  0  0  0  0
   -0.9873   15.5465   -6.2135 C   0  0  0  0  0  0  0  0  0  0  0  0
   -4.1733   13.7985   -7.6555 O   0  0  0  0  0  0  0  0  0  0  0  0
   -5.3353    8.5555   -6.0545 C   0  0  0  0  0  0  0  0  0  0  0  0
   -4.6083    7.3815   -6.1225 C   0  0  0  0  0  0  0  0  0  0  0  0
   -4.8243    6.3695   -5.2195 C   0  0  0  0  0  0  0  0  0  0  0  0
   -5.7623    6.4865   -4.2125 C   0  0  0  0  0  0  0  0  0  0  0  0
   -6.4673    7.6805   -4.1275 C   0  0  0  0  0  0  0  0  0  0  0  0
   -6.2643    8.6935   -5.0395 C   0  0  0  0  0  0  0  0  0  0  0  0
   -7.6693    7.9875   -2.8245 S   0  0  0  0  0  0  0  0  0  0  0  0
   -8.1953    9.7305   -2.8285 C   0  0  0  0  0  0  0  0  0  0  0  0
   -8.4213   10.3375   -1.4285 C   0  0  0  0  0  0  0  0  0  0  0  0
   -8.8983   11.7675   -1.4475 N   0  3  0  0  0  0  0  0  0  0  0  0
   -8.2543   12.6365   -0.3915 C   0  0  0  0  0  0  0  0  0  0  0  0
   -8.7473   14.0945   -0.4885 C   0  0  0  0  0  0  0  0  0  0  0  0
  -10.2833   14.1385   -0.3895 C   0  0  0  0  0  0  0  0  0  0  0  0
  -10.9123   13.2865   -1.5075 C   0  0  0  0  0  0  0  0  0  0  0  0
  -10.4053   11.8335   -1.4055 C   0  0  0  0  0  0  0  0  0  0  0  0
  -10.6873   13.6625    0.8525 F   0  0  0  0  0  0  0  0  0  0  0  0
  -10.7253   15.4525   -0.4935 F   0  0  0  0  0  0  0  0  0  0  0  0
   -5.9123    5.2805   -3.2855 C   0  0  0  0  0  0  0  0  0  0  0  0
   -7.1193    4.6325   -3.5165 F   0  0  0  0  0  0  0  0  0  0  0  0
   -4.8973    4.3455   -3.4605 F   0  0  0  0  0  0  0  0  0  0  0  0
   -5.8843    5.6285   -1.9375 F   0  0  0  0  0  0  0  0  0  0  0  0
   -7.3913    9.8045   -8.4385 C   0  0  0  0  0  0  0  0  0  0  0  0
   -2.3463   13.9915   -8.4365 H   0  0  0  0  0  0  0  0  0  0  0  0
   -8.2343    8.4415  -10.9035 H   0  0  0  0  0  0  0  0  0  0  0  0
   -9.7673    8.0005  -10.5435 H   0  0  0  0  0  0  0  0  0  0  0  0
   -9.4623    8.8265  -11.9135 H   0  0  0  0  0  0  0  0  0  0  0  0
   -7.3223   11.5355  -11.2275 H   0  0  0  0  0  0  0  0  0  0  0  0
   -6.5803   10.1125  -10.8545 H   0  0  0  0  0  0  0  0  0  0  0  0
   -6.0203   12.6625   -9.6075 H   0  0  0  0  0  0  0  0  0  0  0  0
   -4.9983   11.8285  -10.5705 H   0  0  0  0  0  0  0  0  0  0  0  0
   -2.8333   12.0995   -9.5175 H   0  0  0  0  0  0  0  0  0  0  0  0
   -1.9843   11.4965   -8.2215 H   0  0  0  0  0  0  0  0  0  0  0  0
   -1.1373   13.0145   -6.6575 H   0  0  0  0  0  0  0  0  0  0  0  0
   -2.5763   12.6375   -5.9145 H   0  0  0  0  0  0  0  0  0  0  0  0
   -2.8663   15.0145   -5.9205 H   0  0  0  0  0  0  0  0  0  0  0  0
   -1.1863   13.9095   -4.0115 H   0  0  0  0  0  0  0  0  0  0  0  0
   -2.8313   13.8485   -3.9895 H   0  0  0  0  0  0  0  0  0  0  0  0
   -2.0083   15.5505   -2.5005 H   0  0  0  0  0  0  0  0  0  0  0  0
   -2.9533   16.1825   -3.6735 H   0  0  0  0  0  0  0  0  0  0  0  0
   -0.0533   16.1875   -3.7295 H   0  0  0  0  0  0  0  0  0  0  0  0
   -0.9733   17.5045   -3.4475 H   0  0  0  0  0  0  0  0  0  0  0  0
   -0.2753   17.4645   -5.7445 H   0  0  0  0  0  0  0  0  0  0  0  0
   -1.9023   17.3405   -5.6425 H   0  0  0  0  0  0  0  0  0  0  0  0
   -1.1083   15.7225   -7.1905 H   0  0  0  0  0  0  0  0  0  0  0  0
   -0.1013   15.1175   -6.0395 H   0  0  0  0  0  0  0  0  0  0  0  0
   -4.4263   13.8015   -6.6815 H   0  0  0  0  0  0  0  0  0  0  0  0
   -3.9183    7.2685   -6.8365 H   0  0  0  0  0  0  0  0  0  0  0  0
   -4.2903    5.5275   -5.2925 H   0  0  0  0  0  0  0  0  0  0  0  0
   -6.7943    9.5375   -4.9655 H   0  0  0  0  0  0  0  0  0  0  0  0
   -9.0503    9.7985   -3.3425 H   0  0  0  0  0  0  0  0  0  0  0  0
   -7.4483   10.2495   -3.2435 H   0  0  0  0  0  0  0  0  0  0  0  0
   -7.5583   10.2975   -0.9245 H   0  0  0  0  0  0  0  0  0  0  0  0
   -9.1433    9.7995   -0.9945 H   0  0  0  0  0  0  0  0  0  0  0  0
   -8.6483   12.1115   -2.2545 H   0  0  0  0  0  0  0  0  0  0  0  0
   -7.2623   12.6155   -0.5115 H   0  0  0  0  0  0  0  0  0  0  0  0
   -8.5073   12.2785    0.5075 H   0  0  0  0  0  0  0  0  0  0  0  0
   -8.4573   14.4865   -1.3625 H   0  0  0  0  0  0  0  0  0  0  0  0
   -8.3553   14.6245    0.2635 H   0  0  0  0  0  0  0  0  0  0  0  0
  -10.6613   13.6665   -2.3975 H   0  0  0  0  0  0  0  0  0  0  0  0
  -11.9073   13.2955   -1.4075 H   0  0  0  0  0  0  0  0  0  0  0  0
  -10.7263   11.4355   -0.5465 H   0  0  0  0  0  0  0  0  0  0  0  0
  -10.7633   11.3235   -2.1875 H   0  0  0  0  0  0  0  0  0  0  0  0
   -7.4273    8.8635   -8.7755 H   0  0  0  0  0  0  0  0  0  0  0  0
   -7.9453    9.9575   -7.6205 H   0  0  0  0  0  0  0  0  0  0  0  0
  1  2  1  0  0  0  0
  1 46  1  0  0  0  0
  1 47  1  0  0  0  0
  1 48  1  0  0  0  0
  2  3  2  0  0  0  0
  2  4  2  0  0  0  0
  2  5  1  0  0  0  0
  5  6  1  0  0  0  0
  5 44  1  0  0  0  0
  6  7  1  0  0  0  0
  6 49  1  0  0  0  0
  6 50  1  0  0  0  0
  7  8  1  0  0  0  0
  7 51  1  0  0  0  0
  7 52  1  0  0  0  0
  8  9  2  0  0  0  0
  8 12  1  0  0  0  0
  9 10  1  0  0  0  0
  9 44  1  0  0  0  0
 10 11  2  0  0  0  0
 10 23  1  0  0  0  0
 11 12  1  0  0  0  0
 12 13  1  0  0  0  0
 13 14  1  0  0  0  0
 13 53  1  0  0  0  0
 13 54  1  0  0  0  0
 14 15  1  0  0  0  0
 14 22  1  0  0  0  0
 14 45  1  6  0  0  0
 15 16  1  0  0  0  0
 15 55  1  0  0  0  0
 15 56  1  0  0  0  0
 16 17  1  0  0  0  0
 16 21  1  0  0  0  0
 16 57  1  0  0  0  0
 17 18  1  0  0  0  0
 17 58  1  0  0  0  0
 17 59  1  0  0  0  0
 18 19  1  0  0  0  0
 18 60  1  0  0  0  0
 18 61  1  0  0  0  0
 19 20  1  0  0  0  0
 19 62  1  0  0  0  0
 19 63  1  0  0  0  0
 20 21  1  0  0  0  0
 20 64  1  0  0  0  0
 20 65  1  0  0  0  0
 21 66  1  0  0  0  0
 21 67  1  0  0  0  0
 22 68  1  0  0  0  0
 23 24  2  0  0  0  0
 23 28  1  0  0  0  0
 24 25  1  0  0  0  0
 24 69  1  0  0  0  0
 25 26  2  0  0  0  0
 25 70  1  0  0  0  0
 26 27  1  0  0  0  0
 26 40  1  0  0  0  0
 27 28  2  0  0  0  0
 27 29  1  0  0  0  0
 28 71  1  0  0  0  0
 29 30  1  0  0  0  0
 30 31  1  0  0  0  0
 30 72  1  0  0  0  0
 30 73  1  0  0  0  0
 31 32  1  0  0  0  0
 31 74  1  0  0  0  0
 31 75  1  0  0  0  0
 32 33  1  0  0  0  0
 32 37  1  0  0  0  0
 32 76  1  0  0  0  0
 33 34  1  0  0  0  0
 33 77  1  0  0  0  0
 33 78  1  0  0  0  0
 34 35  1  0  0  0  0
 34 79  1  0  0  0  0
 34 80  1  0  0  0  0
 35 36  1  0  0  0  0
 35 38  1  0  0  0  0
 35 39  1  0  0  0  0
 36 37  1  0  0  0  0
 36 81  1  0  0  0  0
 36 82  1  0  0  0  0
 37 83  1  0  0  0  0
 37 84  1  0  0  0  0
 40 41  1  0  0  0  0
 40 42  1  0  0  0  0
 40 43  1  0  0  0  0
 44 85  1  0  0  0  0
 44 86  1  0  0  0  0
M  CHG  2  16   1  32   1
M  END
