CatS_191_D
 OpenBabel12031813433D

100104  0  0  1  0  0  0  0  0999 V2000
   -9.7887   15.7045   -0.8725 C   0  0  0  0  0  0  0  0  0  0  0  0
   -9.4697   14.2925   -1.3855 C   0  0  2  0  0  0  0  0  0  0  0  0
  -10.7477   13.4315   -1.3345 C   0  0  0  0  0  0  0  0  0  0  0  0
  -10.4247   11.9985   -1.8055 C   0  0  0  0  0  0  0  0  0  0  0  0
   -9.3237   11.3715   -0.9785 N   0  3  2  0  0  0  0  0  0  0  0  0
   -8.0727   12.2185   -0.9755 C   0  0  0  0  0  0  0  0  0  0  0  0
   -8.3547   13.6685   -0.5205 C   0  0  0  0  0  0  0  0  0  0  0  0
   -9.0537    9.9085   -1.2525 C   0  0  0  0  0  0  0  0  0  0  0  0
   -8.0287    9.6735   -2.3805 C   0  0  0  0  0  0  0  0  0  0  0  0
   -7.9987    7.9295   -2.8895 S   0  0  0  0  0  0  0  0  0  0  0  0
   -6.6417    7.6605   -4.0445 C   0  0  0  0  0  0  0  0  0  0  0  0
   -6.4947    8.5615   -5.0745 C   0  0  0  0  0  0  0  0  0  0  0  0
   -5.4637    8.4385   -5.9875 C   0  0  0  0  0  0  0  0  0  0  0  0
   -4.5787    7.3875   -5.8415 C   0  0  0  0  0  0  0  0  0  0  0  0
   -4.7357    6.4795   -4.8215 C   0  0  0  0  0  0  0  0  0  0  0  0
   -5.7677    6.5905   -3.9105 C   0  0  0  0  0  0  0  0  0  0  0  0
   -5.8517    5.5185   -2.8245 C   0  0  0  0  0  0  0  0  0  0  0  0
   -5.0207    4.4465   -3.1305 F   0  0  0  0  0  0  0  0  0  0  0  0
   -5.4547    6.0115   -1.5865 F   0  0  0  0  0  0  0  0  0  0  0  0
   -7.1337    5.0055   -2.6495 F   0  0  0  0  0  0  0  0  0  0  0  0
   -5.3057    9.3885   -7.0735 C   0  0  0  0  0  0  0  0  0  0  0  0
   -6.2547    9.7715   -8.0485 C   0  0  0  0  0  0  0  0  0  0  0  0
   -5.6077   10.6735   -8.7875 C   0  0  0  0  0  0  0  0  0  0  0  0
   -4.3357   10.8765   -8.3635 N   0  0  0  0  0  0  0  0  0  0  0  0
   -4.1907   10.0525   -7.3005 N   0  0  0  0  0  0  0  0  0  0  0  0
   -3.2887   11.7665   -8.8815 C   0  0  0  0  0  0  0  0  0  0  0  0
   -2.2257   12.1445   -7.8345 C   0  0  2  0  0  0  0  0  0  0  0  0
   -2.1317   13.6775   -7.7055 C   0  0  0  0  0  0  0  0  0  0  0  0
   -2.4387   14.1845   -6.3185 N   0  3  1  0  0  0  0  0  0  0  0  0
   -1.3587   13.7945   -5.3375 C   0  0  0  0  0  0  0  0  0  0  0  0
   -1.6777   14.2875   -3.9085 C   0  0  0  0  0  0  0  0  0  0  0  0
   -1.9557   15.8055   -3.8715 C   0  0  2  0  0  0  0  0  0  0  0  0
   -3.0937   16.1355   -4.8595 C   0  0  0  0  0  0  0  0  0  0  0  0
   -2.7417   15.6645   -6.2865 C   0  0  0  0  0  0  0  0  0  0  0  0
   -0.7657   16.6325   -4.1285 N   0  0  0  0  0  0  0  0  0  0  0  0
   -0.2547   17.3935   -3.1475 C   0  0  0  0  0  0  0  0  0  0  0  0
   -0.6717   17.4355   -1.9975 O   0  0  0  0  0  0  0  0  0  0  0  0
    0.9253   18.2155   -3.6125 C   0  0  2  0  0  0  0  0  0  0  0  0
    0.4953   19.1815   -4.7285 C   0  0  0  0  0  0  0  0  0  0  0  0
    1.9733   17.3505   -4.0745 O   0  0  0  0  0  0  0  0  0  0  0  0
   -0.9497   11.5995   -8.1995 O   0  0  0  0  0  0  0  0  0  0  0  0
   -6.2557   11.3545   -9.9845 C   0  0  0  0  0  0  0  0  0  0  0  0
   -7.7627   11.0085  -10.0995 C   0  0  0  0  0  0  0  0  0  0  0  0
   -8.0317    9.5905   -9.7645 N   0  0  0  0  0  0  0  0  0  0  0  0
   -7.6907    9.3615   -8.3415 C   0  0  0  0  0  0  0  0  0  0  0  0
   -9.3557    8.8725  -10.4035 S   0  0  0  0  0  0  0  0  0  0  0  0
   -9.3327    7.4875  -10.0625 O   0  0  0  0  0  0  0  0  0  0  0  0
   -9.4337    9.2135  -11.7875 O   0  0  0  0  0  0  0  0  0  0  0  0
  -10.7637    9.6315   -9.5585 C   0  0  0  0  0  0  0  0  0  0  0  0
   -2.4957   11.7615   -6.9505 H   0  0  0  0  0  0  0  0  0  0  0  0
    1.2693   18.7535   -2.8435 H   0  0  0  0  0  0  0  0  0  0  0  0
   -9.0007   16.0525   -0.3645 H   0  0  0  0  0  0  0  0  0  0  0  0
   -9.9837   16.3085   -1.6455 H   0  0  0  0  0  0  0  0  0  0  0  0
  -10.5897   15.6725   -0.2745 H   0  0  0  0  0  0  0  0  0  0  0  0
   -9.1497   14.3365   -2.3315 H   0  0  0  0  0  0  0  0  0  0  0  0
  -11.4437   13.8315   -1.9305 H   0  0  0  0  0  0  0  0  0  0  0  0
  -11.0907   13.4015   -0.3965 H   0  0  0  0  0  0  0  0  0  0  0  0
  -10.1377   12.0275   -2.7625 H   0  0  0  0  0  0  0  0  0  0  0  0
  -11.2487   11.4415   -1.6975 H   0  0  0  0  0  0  0  0  0  0  0  0
   -9.6287   11.3875   -0.1205 H   0  0  0  0  0  0  0  0  0  0  0  0
   -7.6907   12.2365   -1.9005 H   0  0  0  0  0  0  0  0  0  0  0  0
   -7.4277   11.8135   -0.3285 H   0  0  0  0  0  0  0  0  0  0  0  0
   -8.6397   13.6665    0.4375 H   0  0  0  0  0  0  0  0  0  0  0  0
   -7.5207   14.2095   -0.6255 H   0  0  0  0  0  0  0  0  0  0  0  0
   -9.9137    9.4675   -1.5075 H   0  0  0  0  0  0  0  0  0  0  0  0
   -8.6637    9.5195   -0.4175 H   0  0  0  0  0  0  0  0  0  0  0  0
   -7.1197    9.9365   -2.0575 H   0  0  0  0  0  0  0  0  0  0  0  0
   -8.2937   10.2275   -3.1695 H   0  0  0  0  0  0  0  0  0  0  0  0
   -7.1437    9.3165   -5.1645 H   0  0  0  0  0  0  0  0  0  0  0  0
   -3.8177    7.2865   -6.4825 H   0  0  0  0  0  0  0  0  0  0  0  0
   -4.0887    5.7225   -4.7375 H   0  0  0  0  0  0  0  0  0  0  0  0
   -3.7207   12.6045   -9.2135 H   0  0  0  0  0  0  0  0  0  0  0  0
   -2.8157   11.2695   -9.6095 H   0  0  0  0  0  0  0  0  0  0  0  0
   -2.7787   14.0915   -8.3465 H   0  0  0  0  0  0  0  0  0  0  0  0
   -1.1857   13.9325   -7.9075 H   0  0  0  0  0  0  0  0  0  0  0  0
   -3.1947   13.7575   -6.0425 H   0  0  0  0  0  0  0  0  0  0  0  0
   -0.4907   14.1935   -5.6335 H   0  0  0  0  0  0  0  0  0  0  0  0
   -1.3047   12.7965   -5.3155 H   0  0  0  0  0  0  0  0  0  0  0  0
   -0.8997   14.0845   -3.3135 H   0  0  0  0  0  0  0  0  0  0  0  0
   -2.5007   13.8145   -3.5935 H   0  0  0  0  0  0  0  0  0  0  0  0
   -2.2357   16.0365   -2.9405 H   0  0  0  0  0  0  0  0  0  0  0  0
   -3.2457   17.1235   -4.8675 H   0  0  0  0  0  0  0  0  0  0  0  0
   -3.9207   15.6575   -4.5635 H   0  0  0  0  0  0  0  0  0  0  0  0
   -3.5137   15.8525   -6.8935 H   0  0  0  0  0  0  0  0  0  0  0  0
   -1.9277   16.1595   -6.5885 H   0  0  0  0  0  0  0  0  0  0  0  0
   -0.4017   16.6395   -4.9295 H   0  0  0  0  0  0  0  0  0  0  0  0
    1.0423   19.0005   -5.5455 H   0  0  0  0  0  0  0  0  0  0  0  0
   -0.4737   19.0485   -4.9355 H   0  0  0  0  0  0  0  0  0  0  0  0
    0.6373   20.1255   -4.4295 H   0  0  0  0  0  0  0  0  0  0  0  0
    2.5303   17.0085   -3.3095 H   0  0  0  0  0  0  0  0  0  0  0  0
   -0.2047   12.2455   -7.9995 H   0  0  0  0  0  0  0  0  0  0  0  0
   -5.7887   11.0595  -10.8185 H   0  0  0  0  0  0  0  0  0  0  0  0
   -6.1737   12.3435   -9.8615 H   0  0  0  0  0  0  0  0  0  0  0  0
   -8.0667   11.1855  -11.0355 H   0  0  0  0  0  0  0  0  0  0  0  0
   -8.2617   11.5785   -9.4465 H   0  0  0  0  0  0  0  0  0  0  0  0
   -8.3087    9.8955   -7.7655 H   0  0  0  0  0  0  0  0  0  0  0  0
   -7.7877    8.3855   -8.1475 H   0  0  0  0  0  0  0  0  0  0  0  0
  -11.3127   10.1345  -10.2265 H   0  0  0  0  0  0  0  0  0  0  0  0
  -11.3237    8.9215   -9.1295 H   0  0  0  0  0  0  0  0  0  0  0  0
  -10.4347   10.2575   -8.8515 H   0  0  0  0  0  0  0  0  0  0  0  0
  1  2  1  0  0  0  0
  1 52  1  0  0  0  0
  1 53  1  0  0  0  0
  1 54  1  0  0  0  0
  2  3  1  0  0  0  0
  2  7  1  0  0  0  0
  2 55  1  6  0  0  0
  3  4  1  0  0  0  0
  3 56  1  0  0  0  0
  3 57  1  0  0  0  0
  4  5  1  0  0  0  0
  4 58  1  0  0  0  0
  4 59  1  0  0  0  0
  5  6  1  0  0  0  0
  5  8  1  0  0  0  0
  5 60  1  1  0  0  0
  6  7  1  0  0  0  0
  6 61  1  0  0  0  0
  6 62  1  0  0  0  0
  7 63  1  0  0  0  0
  7 64  1  0  0  0  0
  8  9  1  0  0  0  0
  8 65  1  0  0  0  0
  8 66  1  0  0  0  0
  9 10  1  0  0  0  0
  9 67  1  0  0  0  0
  9 68  1  0  0  0  0
 10 11  1  0  0  0  0
 11 12  2  0  0  0  0
 11 16  1  0  0  0  0
 12 13  1  0  0  0  0
 12 69  1  0  0  0  0
 13 14  2  0  0  0  0
 13 21  1  0  0  0  0
 14 15  1  0  0  0  0
 14 70  1  0  0  0  0
 15 16  2  0  0  0  0
 15 71  1  0  0  0  0
 16 17  1  0  0  0  0
 17 18  1  0  0  0  0
 17 19  1  0  0  0  0
 17 20  1  0  0  0  0
 21 22  1  0  0  0  0
 21 25  2  0  0  0  0
 22 23  2  0  0  0  0
 22 45  1  0  0  0  0
 23 24  1  0  0  0  0
 23 42  1  0  0  0  0
 24 25  1  0  0  0  0
 24 26  1  0  0  0  0
 26 27  1  0  0  0  0
 26 72  1  0  0  0  0
 26 73  1  0  0  0  0
 27 28  1  0  0  0  0
 27 41  1  0  0  0  0
 27 50  1  1  0  0  0
 28 29  1  0  0  0  0
 28 74  1  0  0  0  0
 28 75  1  0  0  0  0
 29 30  1  0  0  0  0
 29 34  1  0  0  0  0
 29 76  1  1  0  0  0
 30 31  1  0  0  0  0
 30 77  1  0  0  0  0
 30 78  1  0  0  0  0
 31 32  1  0  0  0  0
 31 79  1  0  0  0  0
 31 80  1  0  0  0  0
 32 33  1  0  0  0  0
 32 35  1  0  0  0  0
 32 81  1  1  0  0  0
 33 34  1  0  0  0  0
 33 82  1  0  0  0  0
 33 83  1  0  0  0  0
 34 84  1  0  0  0  0
 34 85  1  0  0  0  0
 35 36  1  0  0  0  0
 35 86  1  0  0  0  0
 36 37  2  0  0  0  0
 36 38  1  0  0  0  0
 38 39  1  0  0  0  0
 38 40  1  0  0  0  0
 38 51  1  1  0  0  0
 39 87  1  0  0  0  0
 39 88  1  0  0  0  0
 39 89  1  0  0  0  0
 40 90  1  0  0  0  0
 41 91  1  0  0  0  0
 42 43  1  0  0  0  0
 42 92  1  0  0  0  0
 42 93  1  0  0  0  0
 43 44  1  0  0  0  0
 43 94  1  0  0  0  0
 43 95  1  0  0  0  0
 44 45  1  0  0  0  0
 44 46  1  0  0  0  0
 45 96  1  0  0  0  0
 45 97  1  0  0  0  0
 46 47  2  0  0  0  0
 46 48  2  0  0  0  0
 46 49  1  0  0  0  0
 49 98  1  0  0  0  0
 49 99  1  0  0  0  0
 49100  1  0  0  0  0
M  CHG  2   5   1  29   1
M  END
