CatS_195_D
 OpenBabel12031813433D

 93 97  0  0  1  0  0  0  0  0999 V2000
  -11.4118   13.6285    0.5810 C   0  0  0  0  0  0  0  0  0  0  0  0
  -10.1798   13.6255   -0.3360 C   0  0  2  0  0  0  0  0  0  0  0  0
  -10.4948   12.8255   -1.6150 C   0  0  0  0  0  0  0  0  0  0  0  0
   -9.2448   12.7545   -2.5200 C   0  0  0  0  0  0  0  0  0  0  0  0
   -8.0448   12.1995   -1.7870 N   0  3  1  0  0  0  0  0  0  0  0  0
   -7.7538   12.9545   -0.5120 C   0  0  0  0  0  0  0  0  0  0  0  0
   -8.9848   13.0065    0.4160 C   0  0  0  0  0  0  0  0  0  0  0  0
   -8.0528   10.6975   -1.6070 C   0  0  0  0  0  0  0  0  0  0  0  0
   -8.4158    9.9335   -2.9000 C   0  0  0  0  0  0  0  0  0  0  0  0
   -7.9588    8.1835   -2.7510 S   0  0  0  0  0  0  0  0  0  0  0  0
   -6.7528    7.8545   -4.0470 C   0  0  0  0  0  0  0  0  0  0  0  0
   -6.6388    8.7895   -5.0500 C   0  0  0  0  0  0  0  0  0  0  0  0
   -5.7048    8.6425   -6.0570 C   0  0  0  0  0  0  0  0  0  0  0  0
   -4.8928    7.5235   -6.0400 C   0  0  0  0  0  0  0  0  0  0  0  0
   -5.0198    6.5825   -5.0450 C   0  0  0  0  0  0  0  0  0  0  0  0
   -5.9478    6.7235   -4.0330 C   0  0  0  0  0  0  0  0  0  0  0  0
   -5.9918    5.6265   -2.9710 C   0  0  0  0  0  0  0  0  0  0  0  0
   -7.2338    5.0075   -2.8670 F   0  0  0  0  0  0  0  0  0  0  0  0
   -5.6888    6.1165   -1.7050 F   0  0  0  0  0  0  0  0  0  0  0  0
   -5.0638    4.6345   -3.2650 F   0  0  0  0  0  0  0  0  0  0  0  0
   -5.5628    9.6385   -7.1040 C   0  0  0  0  0  0  0  0  0  0  0  0
   -6.3888    9.8525   -8.2320 C   0  0  0  0  0  0  0  0  0  0  0  0
   -5.8308   10.9025   -8.8360 C   0  0  0  0  0  0  0  0  0  0  0  0
   -4.7258   11.3495   -8.1920 N   0  0  0  0  0  0  0  0  0  0  0  0
   -4.5948   10.5315   -7.1230 N   0  0  0  0  0  0  0  0  0  0  0  0
   -3.8378   12.4785   -8.4980 C   0  0  0  0  0  0  0  0  0  0  0  0
   -2.5708   12.4945   -7.6250 C   0  0  2  0  0  0  0  0  0  0  0  0
   -2.4218   13.8715   -6.9500 C   0  0  0  0  0  0  0  0  0  0  0  0
   -1.1648   14.0315   -6.1340 N   0  3  1  0  0  0  0  0  0  0  0  0
   -0.5848   15.4125   -6.3210 C   0  0  0  0  0  0  0  0  0  0  0  0
   -1.4018   16.4755   -5.5630 C   0  0  0  0  0  0  0  0  0  0  0  0
   -1.4388   16.1455   -4.0570 C   0  0  2  0  0  0  0  0  0  0  0  0
   -2.0898   14.7575   -3.8780 C   0  0  0  0  0  0  0  0  0  0  0  0
   -1.3498   13.6625   -4.6790 C   0  0  0  0  0  0  0  0  0  0  0  0
   -2.1368   17.2275   -3.2510 C   0  0  0  0  0  0  0  0  0  0  0  0
   -3.3188   17.5165   -3.3720 O   0  0  0  0  0  0  0  0  0  0  0  0
   -1.3158   17.8245   -2.3750 N   0  0  0  0  0  0  0  0  0  0  0  0
   -1.4148   12.1955   -8.4220 O   0  0  0  0  0  0  0  0  0  0  0  0
   -6.3998   11.4905  -10.1150 C   0  0  0  0  0  0  0  0  0  0  0  0
   -7.8068   10.9225  -10.4190 C   0  0  0  0  0  0  0  0  0  0  0  0
   -7.8678    9.4605  -10.2030 N   0  0  0  0  0  0  0  0  0  0  0  0
   -7.6388    9.1705   -8.7690 C   0  0  0  0  0  0  0  0  0  0  0  0
   -9.0508    8.6385  -10.9550 S   0  0  0  0  0  0  0  0  0  0  0  0
   -9.0198    9.0325  -12.3270 O   0  0  0  0  0  0  0  0  0  0  0  0
   -8.8648    7.2565  -10.6480 O   0  0  0  0  0  0  0  0  0  0  0  0
  -10.6298    9.1745  -10.2450 C   0  0  0  0  0  0  0  0  0  0  0  0
   -2.6508   11.7945   -6.9150 H   0  0  0  0  0  0  0  0  0  0  0  0
  -11.7388   14.5675    0.6850 H   0  0  0  0  0  0  0  0  0  0  0  0
  -12.1328   13.0635    0.1790 H   0  0  0  0  0  0  0  0  0  0  0  0
  -11.1668   13.2545    1.4750 H   0  0  0  0  0  0  0  0  0  0  0  0
   -9.9428   14.5615   -0.5950 H   0  0  0  0  0  0  0  0  0  0  0  0
  -11.2398   13.2715   -2.1110 H   0  0  0  0  0  0  0  0  0  0  0  0
  -10.7658   11.8965   -1.3620 H   0  0  0  0  0  0  0  0  0  0  0  0
   -9.0298   13.6755   -2.8460 H   0  0  0  0  0  0  0  0  0  0  0  0
   -9.4508   12.1415   -3.2820 H   0  0  0  0  0  0  0  0  0  0  0  0
   -7.3278   12.3655   -2.3260 H   0  0  0  0  0  0  0  0  0  0  0  0
   -7.4788   13.8885   -0.7420 H   0  0  0  0  0  0  0  0  0  0  0  0
   -7.0208   12.4765   -0.0280 H   0  0  0  0  0  0  0  0  0  0  0  0
   -9.2208   12.0805    0.7120 H   0  0  0  0  0  0  0  0  0  0  0  0
   -8.7708   13.5675    1.2160 H   0  0  0  0  0  0  0  0  0  0  0  0
   -8.7198   10.4645   -0.8990 H   0  0  0  0  0  0  0  0  0  0  0  0
   -7.1258   10.4235   -1.3510 H   0  0  0  0  0  0  0  0  0  0  0  0
   -7.9268   10.3395   -3.6720 H   0  0  0  0  0  0  0  0  0  0  0  0
   -9.4018    9.9985   -3.0480 H   0  0  0  0  0  0  0  0  0  0  0  0
   -7.2408    9.5885   -5.0500 H   0  0  0  0  0  0  0  0  0  0  0  0
   -4.2078    7.3965   -6.7580 H   0  0  0  0  0  0  0  0  0  0  0  0
   -4.4258    5.7785   -5.0550 H   0  0  0  0  0  0  0  0  0  0  0  0
   -4.3408   13.3305   -8.3510 H   0  0  0  0  0  0  0  0  0  0  0  0
   -3.5458   12.3825   -9.4490 H   0  0  0  0  0  0  0  0  0  0  0  0
   -3.2088   14.0135   -6.3490 H   0  0  0  0  0  0  0  0  0  0  0  0
   -2.3708   14.5465   -7.6860 H   0  0  0  0  0  0  0  0  0  0  0  0
   -0.5528   13.4495   -6.4750 H   0  0  0  0  0  0  0  0  0  0  0  0
   -0.5808   15.6355   -7.2960 H   0  0  0  0  0  0  0  0  0  0  0  0
    0.3462   15.4135   -5.9540 H   0  0  0  0  0  0  0  0  0  0  0  0
   -2.3348   16.4955   -5.9230 H   0  0  0  0  0  0  0  0  0  0  0  0
   -0.9708   17.3695   -5.6900 H   0  0  0  0  0  0  0  0  0  0  0  0
   -0.5068   16.1165   -3.6970 H   0  0  0  0  0  0  0  0  0  0  0  0
   -3.0398   14.8015   -4.1880 H   0  0  0  0  0  0  0  0  0  0  0  0
   -2.0388   14.5155   -2.9090 H   0  0  0  0  0  0  0  0  0  0  0  0
   -0.4508   13.5135   -4.2680 H   0  0  0  0  0  0  0  0  0  0  0  0
   -1.9098   12.8355   -4.6460 H   0  0  0  0  0  0  0  0  0  0  0  0
   -0.4688   17.5905   -2.3180 H   0  0  0  0  0  0  0  0  0  0  0  0
   -1.6278   18.4605   -1.8530 H   0  0  0  0  0  0  0  0  0  0  0  0
   -0.5648   12.3435   -7.9040 H   0  0  0  0  0  0  0  0  0  0  0  0
   -5.7878   11.2745  -10.8750 H   0  0  0  0  0  0  0  0  0  0  0  0
   -6.4788   12.4805   -9.9980 H   0  0  0  0  0  0  0  0  0  0  0  0
   -8.0388   11.1215  -11.3710 H   0  0  0  0  0  0  0  0  0  0  0  0
   -8.4568   11.3545   -9.7940 H   0  0  0  0  0  0  0  0  0  0  0  0
   -8.4288    9.4865   -8.2440 H   0  0  0  0  0  0  0  0  0  0  0  0
   -7.5118    8.1835   -8.6760 H   0  0  0  0  0  0  0  0  0  0  0  0
  -11.0578    8.3995   -9.7800 H   0  0  0  0  0  0  0  0  0  0  0  0
  -10.4728    9.9145   -9.5910 H   0  0  0  0  0  0  0  0  0  0  0  0
  -11.2308    9.5055  -10.9730 H   0  0  0  0  0  0  0  0  0  0  0  0
  1  2  1  0  0  0  0
  1 48  1  0  0  0  0
  1 49  1  0  0  0  0
  1 50  1  0  0  0  0
  2  3  1  0  0  0  0
  2  7  1  0  0  0  0
  2 51  1  6  0  0  0
  3  4  1  0  0  0  0
  3 52  1  0  0  0  0
  3 53  1  0  0  0  0
  4  5  1  0  0  0  0
  4 54  1  0  0  0  0
  4 55  1  0  0  0  0
  5  6  1  0  0  0  0
  5  8  1  0  0  0  0
  5 56  1  6  0  0  0
  6  7  1  0  0  0  0
  6 57  1  0  0  0  0
  6 58  1  0  0  0  0
  7 59  1  0  0  0  0
  7 60  1  0  0  0  0
  8  9  1  0  0  0  0
  8 61  1  0  0  0  0
  8 62  1  0  0  0  0
  9 10  1  0  0  0  0
  9 63  1  0  0  0  0
  9 64  1  0  0  0  0
 10 11  1  0  0  0  0
 11 12  2  0  0  0  0
 11 16  1  0  0  0  0
 12 13  1  0  0  0  0
 12 65  1  0  0  0  0
 13 14  2  0  0  0  0
 13 21  1  0  0  0  0
 14 15  1  0  0  0  0
 14 66  1  0  0  0  0
 15 16  2  0  0  0  0
 15 67  1  0  0  0  0
 16 17  1  0  0  0  0
 17 18  1  0  0  0  0
 17 19  1  0  0  0  0
 17 20  1  0  0  0  0
 21 22  1  0  0  0  0
 21 25  2  0  0  0  0
 22 23  2  0  0  0  0
 22 42  1  0  0  0  0
 23 24  1  0  0  0  0
 23 39  1  0  0  0  0
 24 25  1  0  0  0  0
 24 26  1  0  0  0  0
 26 27  1  0  0  0  0
 26 68  1  0  0  0  0
 26 69  1  0  0  0  0
 27 28  1  0  0  0  0
 27 38  1  0  0  0  0
 27 47  1  1  0  0  0
 28 29  1  0  0  0  0
 28 70  1  0  0  0  0
 28 71  1  0  0  0  0
 29 30  1  0  0  0  0
 29 34  1  0  0  0  0
 29 72  1  6  0  0  0
 30 31  1  0  0  0  0
 30 73  1  0  0  0  0
 30 74  1  0  0  0  0
 31 32  1  0  0  0  0
 31 75  1  0  0  0  0
 31 76  1  0  0  0  0
 32 33  1  0  0  0  0
 32 35  1  0  0  0  0
 32 77  1  1  0  0  0
 33 34  1  0  0  0  0
 33 78  1  0  0  0  0
 33 79  1  0  0  0  0
 34 80  1  0  0  0  0
 34 81  1  0  0  0  0
 35 36  2  0  0  0  0
 35 37  1  0  0  0  0
 37 82  1  0  0  0  0
 37 83  1  0  0  0  0
 38 84  1  0  0  0  0
 39 40  1  0  0  0  0
 39 85  1  0  0  0  0
 39 86  1  0  0  0  0
 40 41  1  0  0  0  0
 40 87  1  0  0  0  0
 40 88  1  0  0  0  0
 41 42  1  0  0  0  0
 41 43  1  0  0  0  0
 42 89  1  0  0  0  0
 42 90  1  0  0  0  0
 43 44  2  0  0  0  0
 43 45  2  0  0  0  0
 43 46  1  0  0  0  0
 46 91  1  0  0  0  0
 46 92  1  0  0  0  0
 46 93  1  0  0  0  0
M  CHG  2   5   1  29   1
M  END
