CatS_153_D
 OpenBabel12031813433D

 90 94  0  0  1  0  0  0  0  0999 V2000
   -1.7923   17.4725   -3.0422 C   0  0  0  0  0  0  0  0  0  0  0  0
   -2.3333   16.4445   -4.0542 C   0  0  2  0  0  0  0  0  0  0  0  0
   -2.0513   15.0315   -3.4852 C   0  0  0  0  0  0  0  0  0  0  0  0
   -1.5703   14.0355   -4.5632 C   0  0  0  0  0  0  0  0  0  0  0  0
   -2.3003   14.2215   -5.8722 N   0  3  1  0  0  0  0  0  0  0  0  0
   -2.0863   15.6025   -6.4592 C   0  0  0  0  0  0  0  0  0  0  0  0
   -1.6363   16.6565   -5.4162 C   0  0  0  0  0  0  0  0  0  0  0  0
   -2.0893   13.1045   -6.8722 C   0  0  0  0  0  0  0  0  0  0  0  0
   -3.0993   13.1305   -8.0422 C   0  0  1  0  0  0  0  0  0  0  0  0
   -3.0903   11.7895   -8.8112 C   0  0  0  0  0  0  0  0  0  0  0  0
   -4.0993   10.8215   -8.3562 N   0  0  0  0  0  0  0  0  0  0  0  0
   -5.3793   10.6275   -8.7672 C   0  0  0  0  0  0  0  0  0  0  0  0
   -6.0223    9.7085   -8.0452 C   0  0  0  0  0  0  0  0  0  0  0  0
   -5.0443    9.2745   -7.1222 C   0  0  0  0  0  0  0  0  0  0  0  0
   -3.9283    9.9365   -7.3462 N   0  0  0  0  0  0  0  0  0  0  0  0
   -5.1893    8.2835   -6.0732 C   0  0  0  0  0  0  0  0  0  0  0  0
   -4.3133    7.2185   -5.9762 C   0  0  0  0  0  0  0  0  0  0  0  0
   -4.4563    6.2895   -4.9732 C   0  0  0  0  0  0  0  0  0  0  0  0
   -5.4553    6.3995   -4.0262 C   0  0  0  0  0  0  0  0  0  0  0  0
   -6.3193    7.4825   -4.1152 C   0  0  0  0  0  0  0  0  0  0  0  0
   -6.1973    8.3985   -5.1352 C   0  0  0  0  0  0  0  0  0  0  0  0
   -7.6103    7.7805   -2.8972 S   0  0  0  0  0  0  0  0  0  0  0  0
   -7.6043    9.5785   -2.6462 C   0  0  0  0  0  0  0  0  0  0  0  0
   -9.0203   10.1825   -2.6372 C   0  0  0  0  0  0  0  0  0  0  0  0
   -9.2313   11.1005   -1.4572 N   0  3  1  0  0  0  0  0  0  0  0  0
   -8.2703   12.2605   -1.4662 C   0  0  0  0  0  0  0  0  0  0  0  0
   -8.2873   13.0245   -0.1172 C   0  0  0  0  0  0  0  0  0  0  0  0
   -9.6403   12.8785    0.6188 C   0  0  0  0  0  0  0  0  0  0  0  0
  -10.8023   12.8025   -0.3902 C   0  0  0  0  0  0  0  0  0  0  0  0
  -10.6703   11.5345   -1.2712 C   0  0  0  0  0  0  0  0  0  0  0  0
  -12.0173   12.7975    0.2918 F   0  0  0  0  0  0  0  0  0  0  0  0
  -10.8013   13.9385   -1.1952 F   0  0  0  0  0  0  0  0  0  0  0  0
   -5.5233    5.3185   -2.9492 C   0  0  0  0  0  0  0  0  0  0  0  0
   -4.6773    4.2395   -3.1932 F   0  0  0  0  0  0  0  0  0  0  0  0
   -6.8133    4.8065   -2.8482 F   0  0  0  0  0  0  0  0  0  0  0  0
   -5.1763    5.8265   -1.7012 F   0  0  0  0  0  0  0  0  0  0  0  0
   -7.4733    9.3225   -8.3052 C   0  0  0  0  0  0  0  0  0  0  0  0
   -7.9393    9.7015   -9.6602 N   0  0  0  0  0  0  0  0  0  0  0  0
   -7.5783   11.1135   -9.9182 C   0  0  0  0  0  0  0  0  0  0  0  0
   -6.0473   11.3225   -9.9422 C   0  0  0  0  0  0  0  0  0  0  0  0
   -9.4303    9.2295  -10.1182 S   0  0  0  0  0  0  0  0  0  0  0  0
   -9.5563    7.8415   -9.8142 O   0  0  0  0  0  0  0  0  0  0  0  0
   -9.5893    9.6305  -11.4792 O   0  0  0  0  0  0  0  0  0  0  0  0
  -10.6243   10.1475   -9.1102 C   0  0  0  0  0  0  0  0  0  0  0  0
   -4.4223   13.4375   -7.5692 O   0  0  0  0  0  0  0  0  0  0  0  0
   -3.7503   16.6075   -4.2432 O   0  0  0  0  0  0  0  0  0  0  0  0
   -2.8203   13.8535   -8.6742 H   0  0  0  0  0  0  0  0  0  0  0  0
   -2.5483   18.0445   -2.7242 H   0  0  0  0  0  0  0  0  0  0  0  0
   -1.3803   16.9965   -2.2652 H   0  0  0  0  0  0  0  0  0  0  0  0
   -1.0973   18.0425   -3.4802 H   0  0  0  0  0  0  0  0  0  0  0  0
   -2.8913   14.6785   -3.0732 H   0  0  0  0  0  0  0  0  0  0  0  0
   -1.3183   15.1205   -2.8102 H   0  0  0  0  0  0  0  0  0  0  0  0
   -1.7233   13.1035   -4.2352 H   0  0  0  0  0  0  0  0  0  0  0  0
   -0.5973   14.2035   -4.7262 H   0  0  0  0  0  0  0  0  0  0  0  0
   -3.1873   14.1785   -5.6672 H   0  0  0  0  0  0  0  0  0  0  0  0
   -2.9433   15.9085   -6.8722 H   0  0  0  0  0  0  0  0  0  0  0  0
   -1.3503   15.5255   -7.1322 H   0  0  0  0  0  0  0  0  0  0  0  0
   -0.6473   16.5895   -5.2892 H   0  0  0  0  0  0  0  0  0  0  0  0
   -1.8903   17.5605   -5.7582 H   0  0  0  0  0  0  0  0  0  0  0  0
   -2.1743   12.2295   -6.3952 H   0  0  0  0  0  0  0  0  0  0  0  0
   -1.1783   13.2295   -7.2662 H   0  0  0  0  0  0  0  0  0  0  0  0
   -2.1863   11.3745   -8.7072 H   0  0  0  0  0  0  0  0  0  0  0  0
   -3.3103   12.0045   -9.7622 H   0  0  0  0  0  0  0  0  0  0  0  0
   -3.5713    7.1235   -6.6402 H   0  0  0  0  0  0  0  0  0  0  0  0
   -3.8233    5.5165   -4.9282 H   0  0  0  0  0  0  0  0  0  0  0  0
   -6.8463    9.1565   -5.1992 H   0  0  0  0  0  0  0  0  0  0  0  0
   -7.0763   10.0035   -3.3812 H   0  0  0  0  0  0  0  0  0  0  0  0
   -7.1953    9.7565   -1.7512 H   0  0  0  0  0  0  0  0  0  0  0  0
   -9.6893    9.4405   -2.5972 H   0  0  0  0  0  0  0  0  0  0  0  0
   -9.1333   10.7215   -3.4722 H   0  0  0  0  0  0  0  0  0  0  0  0
   -9.0113   10.6125   -0.7202 H   0  0  0  0  0  0  0  0  0  0  0  0
   -8.5243   12.8885   -2.2012 H   0  0  0  0  0  0  0  0  0  0  0  0
   -7.3473   11.9015   -1.6092 H   0  0  0  0  0  0  0  0  0  0  0  0
   -8.1163   13.9945   -0.2932 H   0  0  0  0  0  0  0  0  0  0  0  0
   -7.5773   12.6325    0.4668 H   0  0  0  0  0  0  0  0  0  0  0  0
   -9.7753   13.6655    1.2198 H   0  0  0  0  0  0  0  0  0  0  0  0
   -9.6253   12.0335    1.1548 H   0  0  0  0  0  0  0  0  0  0  0  0
  -11.1783   10.7885   -0.8422 H   0  0  0  0  0  0  0  0  0  0  0  0
  -11.0383   11.7565   -2.1752 H   0  0  0  0  0  0  0  0  0  0  0  0
   -8.0513    9.7775   -7.6282 H   0  0  0  0  0  0  0  0  0  0  0  0
   -7.5343    8.3265   -8.2372 H   0  0  0  0  0  0  0  0  0  0  0  0
   -7.9743   11.6855   -9.2002 H   0  0  0  0  0  0  0  0  0  0  0  0
   -7.9383   11.3655  -10.8162 H   0  0  0  0  0  0  0  0  0  0  0  0
   -5.6773   10.9525  -10.7942 H   0  0  0  0  0  0  0  0  0  0  0  0
   -5.8613   12.3035   -9.8772 H   0  0  0  0  0  0  0  0  0  0  0  0
  -11.1563   10.7505   -9.7032 H   0  0  0  0  0  0  0  0  0  0  0  0
  -11.2363    9.5075   -8.6442 H   0  0  0  0  0  0  0  0  0  0  0  0
  -10.1383   10.6895   -8.4242 H   0  0  0  0  0  0  0  0  0  0  0  0
   -4.7253   12.7755   -6.8742 H   0  0  0  0  0  0  0  0  0  0  0  0
   -4.2703   16.2555   -3.4572 H   0  0  0  0  0  0  0  0  0  0  0  0
  1 48  1  0  0  0  0
  1 49  1  0  0  0  0
  1 50  1  0  0  0  0
  2  1  1  1  0  0  0
  2  3  1  0  0  0  0
  2  7  1  0  0  0  0
  2 46  1  0  0  0  0
  3  4  1  0  0  0  0
  3 51  1  0  0  0  0
  3 52  1  0  0  0  0
  4  5  1  0  0  0  0
  4 53  1  0  0  0  0
  4 54  1  0  0  0  0
  5  6  1  0  0  0  0
  5  8  1  0  0  0  0
  5 55  1  1  0  0  0
  6  7  1  0  0  0  0
  6 56  1  0  0  0  0
  6 57  1  0  0  0  0
  7 58  1  0  0  0  0
  7 59  1  0  0  0  0
  8  9  1  0  0  0  0
  8 60  1  0  0  0  0
  8 61  1  0  0  0  0
  9 10  1  0  0  0  0
  9 45  1  0  0  0  0
  9 47  1  6  0  0  0
 10 11  1  0  0  0  0
 10 62  1  0  0  0  0
 10 63  1  0  0  0  0
 11 12  1  0  0  0  0
 11 15  1  0  0  0  0
 12 13  2  0  0  0  0
 12 40  1  0  0  0  0
 13 14  1  0  0  0  0
 13 37  1  0  0  0  0
 14 15  2  0  0  0  0
 14 16  1  0  0  0  0
 16 17  2  0  0  0  0
 16 21  1  0  0  0  0
 17 18  1  0  0  0  0
 17 64  1  0  0  0  0
 18 19  2  0  0  0  0
 18 65  1  0  0  0  0
 19 20  1  0  0  0  0
 19 33  1  0  0  0  0
 20 21  2  0  0  0  0
 20 22  1  0  0  0  0
 21 66  1  0  0  0  0
 22 23  1  0  0  0  0
 23 24  1  0  0  0  0
 23 67  1  0  0  0  0
 23 68  1  0  0  0  0
 24 25  1  0  0  0  0
 24 69  1  0  0  0  0
 24 70  1  0  0  0  0
 25 26  1  0  0  0  0
 25 30  1  0  0  0  0
 25 71  1  1  0  0  0
 26 27  1  0  0  0  0
 26 72  1  0  0  0  0
 26 73  1  0  0  0  0
 27 28  1  0  0  0  0
 27 74  1  0  0  0  0
 27 75  1  0  0  0  0
 28 29  1  0  0  0  0
 28 76  1  0  0  0  0
 28 77  1  0  0  0  0
 29 30  1  0  0  0  0
 29 31  1  0  0  0  0
 29 32  1  0  0  0  0
 30 78  1  0  0  0  0
 30 79  1  0  0  0  0
 33 34  1  0  0  0  0
 33 35  1  0  0  0  0
 33 36  1  0  0  0  0
 37 38  1  0  0  0  0
 37 80  1  0  0  0  0
 37 81  1  0  0  0  0
 38 39  1  0  0  0  0
 38 41  1  0  0  0  0
 39 40  1  0  0  0  0
 39 82  1  0  0  0  0
 39 83  1  0  0  0  0
 40 84  1  0  0  0  0
 40 85  1  0  0  0  0
 41 42  2  0  0  0  0
 41 43  2  0  0  0  0
 41 44  1  0  0  0  0
 44 86  1  0  0  0  0
 44 87  1  0  0  0  0
 44 88  1  0  0  0  0
 45 89  1  0  0  0  0
 46 90  1  0  0  0  0
M  CHG  2   5   1  25   1
M  END
