CatS_186_D
 OpenBabel12031813433D

 93 97  0  0  1  0  0  0  0  0999 V2000
  -11.5208   14.9998   -1.7023 C   0  0  0  0  0  0  0  0  0  0  0  0
  -10.3118   14.3798   -0.9853 C   0  0  2  0  0  0  0  0  0  0  0  0
   -9.2588   13.9588   -2.0263 C   0  0  0  0  0  0  0  0  0  0  0  0
   -8.0508   13.3038   -1.3283 C   0  0  0  0  0  0  0  0  0  0  0  0
   -8.4778   12.1318   -0.4753 N   0  3  1  0  0  0  0  0  0  0  0  0
   -9.5518   12.5068    0.5187 C   0  0  0  0  0  0  0  0  0  0  0  0
  -10.7658   13.1478   -0.1823 C   0  0  0  0  0  0  0  0  0  0  0  0
   -8.8718   10.9208   -1.2823 C   0  0  0  0  0  0  0  0  0  0  0  0
   -7.7148   10.3138   -2.1043 C   0  0  0  0  0  0  0  0  0  0  0  0
   -7.9698    8.5798   -2.5893 S   0  0  0  0  0  0  0  0  0  0  0  0
   -6.9438    8.1718   -4.0093 C   0  0  0  0  0  0  0  0  0  0  0  0
   -7.1318    8.9218   -5.1483 C   0  0  0  0  0  0  0  0  0  0  0  0
   -6.3598    8.6998   -6.2773 C   0  0  0  0  0  0  0  0  0  0  0  0
   -5.3978    7.7108   -6.2243 C   0  0  0  0  0  0  0  0  0  0  0  0
   -5.2238    6.9558   -5.0903 C   0  0  0  0  0  0  0  0  0  0  0  0
   -5.9958    7.1588   -3.9633 C   0  0  0  0  0  0  0  0  0  0  0  0
   -5.7248    6.2458   -2.7663 C   0  0  0  0  0  0  0  0  0  0  0  0
   -5.0448    5.0988   -3.1583 F   0  0  0  0  0  0  0  0  0  0  0  0
   -4.9488    6.8778   -1.8013 F   0  0  0  0  0  0  0  0  0  0  0  0
   -6.8868    5.8308   -2.1203 F   0  0  0  0  0  0  0  0  0  0  0  0
   -6.5388    9.4498   -7.5093 C   0  0  0  0  0  0  0  0  0  0  0  0
   -5.6288   10.2868   -8.1973 C   0  0  0  0  0  0  0  0  0  0  0  0
   -6.3488   10.7588   -9.2173 C   0  0  0  0  0  0  0  0  0  0  0  0
   -7.6108   10.2598   -9.2473 N   0  0  0  0  0  0  0  0  0  0  0  0
   -7.6818    9.4578   -8.1623 N   0  0  0  0  0  0  0  0  0  0  0  0
   -8.7178   10.4898  -10.1873 C   0  0  0  0  0  0  0  0  0  0  0  0
   -9.4748    9.2148  -10.6093 C   0  0  2  0  0  0  0  0  0  0  0  0
  -10.2958    8.6428   -9.4333 C   0  0  0  0  0  0  0  0  0  0  0  0
  -11.7168    9.1508   -9.3623 N   0  3  2  0  0  0  0  0  0  0  0  0
  -12.5728    8.3908   -8.3773 C   0  0  0  0  0  0  0  0  0  0  0  0
  -14.0028    8.9678   -8.2983 C   0  0  0  0  0  0  0  0  0  0  0  0
  -14.7008    9.0818   -9.6713 C   0  0  1  0  0  0  0  0  0  0  0  0
  -13.7768    9.8008  -10.6803 C   0  0  0  0  0  0  0  0  0  0  0  0
  -12.3488    9.2138  -10.7313 C   0  0  0  0  0  0  0  0  0  0  0  0
  -15.1368    7.6988  -10.1933 C   0  0  0  0  0  0  0  0  0  0  0  0
  -15.8888    9.8708   -9.5063 O   0  0  0  0  0  0  0  0  0  0  0  0
   -8.5558    8.2288  -11.1023 O   0  0  0  0  0  0  0  0  0  0  0  0
   -5.7648   11.7698  -10.1863 C   0  0  0  0  0  0  0  0  0  0  0  0
   -4.5738   12.4998   -9.5243 C   0  0  0  0  0  0  0  0  0  0  0  0
   -3.5708   11.5398   -9.0123 N   0  0  0  0  0  0  0  0  0  0  0  0
   -4.1838   10.7058   -7.9493 C   0  0  0  0  0  0  0  0  0  0  0  0
   -2.0908   12.1298   -8.6773 S   0  0  0  0  0  0  0  0  0  0  0  0
   -1.6978   12.9738   -9.7593 O   0  0  0  0  0  0  0  0  0  0  0  0
   -1.2378   11.0268   -8.3733 O   0  0  0  0  0  0  0  0  0  0  0  0
   -2.2528   13.1358   -7.1763 C   0  0  0  0  0  0  0  0  0  0  0  0
  -10.1098    9.4588  -11.3423 H   0  0  0  0  0  0  0  0  0  0  0  0
  -11.2958   15.1268   -2.6683 H   0  0  0  0  0  0  0  0  0  0  0  0
  -12.3108   14.3928   -1.6173 H   0  0  0  0  0  0  0  0  0  0  0  0
  -11.7418   15.8828   -1.2883 H   0  0  0  0  0  0  0  0  0  0  0  0
   -9.9128   15.0528   -0.3613 H   0  0  0  0  0  0  0  0  0  0  0  0
   -8.9528   14.7648   -2.5333 H   0  0  0  0  0  0  0  0  0  0  0  0
   -9.6688   13.2988   -2.6553 H   0  0  0  0  0  0  0  0  0  0  0  0
   -7.5998   13.9828   -0.7503 H   0  0  0  0  0  0  0  0  0  0  0  0
   -7.4248   12.9678   -2.0313 H   0  0  0  0  0  0  0  0  0  0  0  0
   -7.7518   11.8888    0.0187 H   0  0  0  0  0  0  0  0  0  0  0  0
   -9.1738   13.1558    1.1787 H   0  0  0  0  0  0  0  0  0  0  0  0
   -9.8578   11.6738    0.9807 H   0  0  0  0  0  0  0  0  0  0  0  0
  -11.1848   12.4828   -0.8003 H   0  0  0  0  0  0  0  0  0  0  0  0
  -11.4338   13.4288    0.5067 H   0  0  0  0  0  0  0  0  0  0  0  0
   -9.6038   11.1838   -1.9103 H   0  0  0  0  0  0  0  0  0  0  0  0
   -9.1608   10.2198   -0.6303 H   0  0  0  0  0  0  0  0  0  0  0  0
   -6.8788   10.3698   -1.5593 H   0  0  0  0  0  0  0  0  0  0  0  0
   -7.6598   10.8418   -2.9523 H   0  0  0  0  0  0  0  0  0  0  0  0
   -7.8328    9.6348   -5.1603 H   0  0  0  0  0  0  0  0  0  0  0  0
   -4.8198    7.5428   -7.0233 H   0  0  0  0  0  0  0  0  0  0  0  0
   -4.5228    6.2428   -5.0803 H   0  0  0  0  0  0  0  0  0  0  0  0
   -8.3458   10.9228  -11.0093 H   0  0  0  0  0  0  0  0  0  0  0  0
   -9.3798   11.0678   -9.7093 H   0  0  0  0  0  0  0  0  0  0  0  0
   -9.8318    8.8828   -8.5803 H   0  0  0  0  0  0  0  0  0  0  0  0
  -10.3528    7.6548   -9.5763 H   0  0  0  0  0  0  0  0  0  0  0  0
  -11.6768   10.0118   -9.0643 H   0  0  0  0  0  0  0  0  0  0  0  0
  -12.1498    8.4398   -7.4723 H   0  0  0  0  0  0  0  0  0  0  0  0
  -12.6378    7.4418   -8.6883 H   0  0  0  0  0  0  0  0  0  0  0  0
  -13.9558    9.8798   -7.8883 H   0  0  0  0  0  0  0  0  0  0  0  0
  -14.5458    8.3338   -7.7473 H   0  0  0  0  0  0  0  0  0  0  0  0
  -13.7168   10.7658  -10.4243 H   0  0  0  0  0  0  0  0  0  0  0  0
  -14.1778    9.6768  -11.5873 H   0  0  0  0  0  0  0  0  0  0  0  0
  -12.3898    8.2898  -11.1123 H   0  0  0  0  0  0  0  0  0  0  0  0
  -11.7888    9.8128  -11.3033 H   0  0  0  0  0  0  0  0  0  0  0  0
  -16.1318    7.6858  -10.2903 H   0  0  0  0  0  0  0  0  0  0  0  0
  -14.7098    7.5228  -11.0803 H   0  0  0  0  0  0  0  0  0  0  0  0
  -14.8508    6.9898   -9.5483 H   0  0  0  0  0  0  0  0  0  0  0  0
  -16.6378    9.3278   -9.1103 H   0  0  0  0  0  0  0  0  0  0  0  0
   -8.9908    7.6318  -11.7843 H   0  0  0  0  0  0  0  0  0  0  0  0
   -6.4678   12.4358  -10.4383 H   0  0  0  0  0  0  0  0  0  0  0  0
   -5.4468   11.2958  -11.0073 H   0  0  0  0  0  0  0  0  0  0  0  0
   -4.9118   13.0558   -8.7653 H   0  0  0  0  0  0  0  0  0  0  0  0
   -4.1338   13.0748  -10.2133 H   0  0  0  0  0  0  0  0  0  0  0  0
   -3.6338    9.8778   -7.8483 H   0  0  0  0  0  0  0  0  0  0  0  0
   -4.2008   11.2778   -7.1283 H   0  0  0  0  0  0  0  0  0  0  0  0
   -1.7158   12.7168   -6.4443 H   0  0  0  0  0  0  0  0  0  0  0  0
   -1.9188   14.0618   -7.3523 H   0  0  0  0  0  0  0  0  0  0  0  0
   -3.2148   13.1828   -6.9053 H   0  0  0  0  0  0  0  0  0  0  0  0
  1  2  1  0  0  0  0
  1 47  1  0  0  0  0
  1 48  1  0  0  0  0
  1 49  1  0  0  0  0
  2  3  1  0  0  0  0
  2  7  1  0  0  0  0
  2 50  1  1  0  0  0
  3  4  1  0  0  0  0
  3 51  1  0  0  0  0
  3 52  1  0  0  0  0
  4  5  1  0  0  0  0
  4 53  1  0  0  0  0
  4 54  1  0  0  0  0
  5  6  1  0  0  0  0
  5  8  1  0  0  0  0
  5 55  1  1  0  0  0
  6  7  1  0  0  0  0
  6 56  1  0  0  0  0
  6 57  1  0  0  0  0
  7 58  1  0  0  0  0
  7 59  1  0  0  0  0
  8  9  1  0  0  0  0
  8 60  1  0  0  0  0
  8 61  1  0  0  0  0
  9 10  1  0  0  0  0
  9 62  1  0  0  0  0
  9 63  1  0  0  0  0
 10 11  1  0  0  0  0
 11 12  2  0  0  0  0
 11 16  1  0  0  0  0
 12 13  1  0  0  0  0
 12 64  1  0  0  0  0
 13 14  2  0  0  0  0
 13 21  1  0  0  0  0
 14 15  1  0  0  0  0
 14 65  1  0  0  0  0
 15 16  2  0  0  0  0
 15 66  1  0  0  0  0
 16 17  1  0  0  0  0
 17 18  1  0  0  0  0
 17 19  1  0  0  0  0
 17 20  1  0  0  0  0
 21 22  1  0  0  0  0
 21 25  2  0  0  0  0
 22 23  2  0  0  0  0
 22 41  1  0  0  0  0
 23 24  1  0  0  0  0
 23 38  1  0  0  0  0
 24 25  1  0  0  0  0
 24 26  1  0  0  0  0
 26 27  1  0  0  0  0
 26 67  1  0  0  0  0
 26 68  1  0  0  0  0
 27 28  1  0  0  0  0
 27 37  1  0  0  0  0
 27 46  1  6  0  0  0
 28 29  1  0  0  0  0
 28 69  1  0  0  0  0
 28 70  1  0  0  0  0
 29 30  1  0  0  0  0
 29 34  1  0  0  0  0
 29 71  1  1  0  0  0
 30 31  1  0  0  0  0
 30 72  1  0  0  0  0
 30 73  1  0  0  0  0
 31 32  1  0  0  0  0
 31 74  1  0  0  0  0
 31 75  1  0  0  0  0
 32 33  1  0  0  0  0
 32 35  1  6  0  0  0
 32 36  1  0  0  0  0
 33 34  1  0  0  0  0
 33 76  1  0  0  0  0
 33 77  1  0  0  0  0
 34 78  1  0  0  0  0
 34 79  1  0  0  0  0
 35 80  1  0  0  0  0
 35 81  1  0  0  0  0
 35 82  1  0  0  0  0
 36 83  1  0  0  0  0
 37 84  1  0  0  0  0
 38 39  1  0  0  0  0
 38 85  1  0  0  0  0
 38 86  1  0  0  0  0
 39 40  1  0  0  0  0
 39 87  1  0  0  0  0
 39 88  1  0  0  0  0
 40 41  1  0  0  0  0
 40 42  1  0  0  0  0
 41 89  1  0  0  0  0
 41 90  1  0  0  0  0
 42 43  2  0  0  0  0
 42 44  2  0  0  0  0
 42 45  1  0  0  0  0
 45 91  1  0  0  0  0
 45 92  1  0  0  0  0
 45 93  1  0  0  0  0
M  CHG  2   5   1  29   1
M  END
